BEGIN options
  CONTINUE
END options

BEGIN timing
  TDIS6  ..\external_files\lab_model.tdis
END timing

BEGIN models
  gwf6  lab_model.nam  lab_model
END models

BEGIN exchanges
END exchanges

BEGIN solutiongroup  1
  ims6  ..\external_files\lab_model.ims  lab_model
END solutiongroup  1

