# File generated by Flopy version 3.3.4 on 11/18/2021 at 10:16:08.
BEGIN options
  BOUNDNAMES
  SAVE_FLOWS
END options

BEGIN dimensions
  MAXBOUND  9109
END dimensions

BEGIN period  1
  1 256 170       4.34601981      17.08429000  ghbeast_2
  2 256 170       4.34601981       7.83701800  ghbeast_3
  4 256 170       4.34601981    1989.38500000  ghbeast_5
  5 256 170       4.34601981       4.62924800  ghbeast_6
  6 256 170       4.34601981       3.52096600  ghbeast_7
  8 256 170       4.34601981       6.51260700  ghbeast_9
  9 256 170       4.34601981       0.88230130  ghbeast_10
  10 256 170       4.34601981       0.69797270  ghbeast_11
  11 256 170       4.34601981       6.30167400  ghbeast_12
  12 256 170       4.34601981      13.63741000  ghbeast_13
  1 256 171       4.40096433      17.08429000  ghbeast_2
  2 256 171       4.40096433       7.83701800  ghbeast_3
  4 256 171       4.40096433    1989.38500000  ghbeast_5
  5 256 171       4.40096433       4.62924800  ghbeast_6
  6 256 171       4.40096433       3.52096600  ghbeast_7
  8 256 171       4.40096433       6.51260700  ghbeast_9
  9 256 171       4.40096433       0.88230130  ghbeast_10
  10 256 171       4.40096433       0.69797270  ghbeast_11
  11 256 171       4.40096433       6.30167400  ghbeast_12
  12 256 171       4.40096433      13.63741000  ghbeast_13
  1 256 172       4.49063279      17.08429000  ghbeast_2
  2 256 172       4.49063279       7.83701800  ghbeast_3
  4 256 172       4.49063279    1989.38500000  ghbeast_5
  5 256 172       4.49063279       4.62924800  ghbeast_6
  6 256 172       4.49063279       3.52096600  ghbeast_7
  8 256 172       4.49063279       6.51260700  ghbeast_9
  9 256 172       4.49063279       0.88230130  ghbeast_10
  10 256 172       4.49063279       0.69797270  ghbeast_11
  11 256 172       4.49063279       6.30167400  ghbeast_12
  12 256 172       4.49063279      13.63741000  ghbeast_13
  1 256 173       4.51503111      17.08429000  ghbeast_2
  2 256 173       4.51503111       7.83701800  ghbeast_3
  4 256 173       4.51503111    1989.38500000  ghbeast_5
  5 256 173       4.51503111       4.62924800  ghbeast_6
  6 256 173       4.51503111       3.52096600  ghbeast_7
  8 256 173       4.51503111       6.51260700  ghbeast_9
  9 256 173       4.51503111       0.88230130  ghbeast_10
  10 256 173       4.51503111       0.69797270  ghbeast_11
  11 256 173       4.51503111       6.30167400  ghbeast_12
  12 256 173       4.51503111      13.63741000  ghbeast_13
  1 256 174       4.53142872      17.08429000  ghbeast_2
  2 256 174       4.53142872       7.83701800  ghbeast_3
  4 256 174       4.53142872    1989.38500000  ghbeast_5
  5 256 174       4.53142872       4.62924800  ghbeast_6
  6 256 174       4.53142872       3.52096600  ghbeast_7
  8 256 174       4.53142872       6.51260700  ghbeast_9
  9 256 174       4.53142872       0.88230130  ghbeast_10
  10 256 174       4.53142872       0.69797270  ghbeast_11
  11 256 174       4.53142872       6.30167400  ghbeast_12
  12 256 174       4.53142872      13.63741000  ghbeast_13
  1 256 175       4.55761469      17.08429000  ghbeast_2
  2 256 175       4.55761469       7.83701800  ghbeast_3
  4 256 175       4.55761469    1989.38500000  ghbeast_5
  5 256 175       4.55761469       4.62924800  ghbeast_6
  6 256 175       4.55761469       3.52096600  ghbeast_7
  8 256 175       4.55761469       6.51260700  ghbeast_9
  9 256 175       4.55761469       0.88230130  ghbeast_10
  10 256 175       4.55761469       0.69797270  ghbeast_11
  11 256 175       4.55761469       6.30167400  ghbeast_12
  12 256 175       4.55761469      13.63741000  ghbeast_13
  1 256 176       4.54611496      17.08429000  ghbeast_2
  2 256 176       4.54611496       7.83701800  ghbeast_3
  4 256 176       4.54611496    1989.38500000  ghbeast_5
  5 256 176       4.54611496       4.62924800  ghbeast_6
  6 256 176       4.54611496       3.52096600  ghbeast_7
  8 256 176       4.54611496       6.51260700  ghbeast_9
  9 256 176       4.54611496       0.88230130  ghbeast_10
  10 256 176       4.54611496       0.69797270  ghbeast_11
  11 256 176       4.54611496       6.30167400  ghbeast_12
  12 256 176       4.54611496      13.63741000  ghbeast_13
  1 256 177       4.54999578      17.08429000  ghbeast_2
  2 256 177       4.54999578       7.83701800  ghbeast_3
  4 256 177       4.54999578    1989.38500000  ghbeast_5
  5 256 177       4.54999578       4.62924800  ghbeast_6
  6 256 177       4.54999578       3.52096600  ghbeast_7
  8 256 177       4.54999578       6.51260700  ghbeast_9
  9 256 177       4.54999578       0.88230130  ghbeast_10
  10 256 177       4.54999578       0.69797270  ghbeast_11
  11 256 177       4.54999578       6.30167400  ghbeast_12
  12 256 177       4.54999578      13.63741000  ghbeast_13
  1 256 178       4.55678054      17.08429000  ghbeast_2
  2 256 178       4.55678054       7.83701800  ghbeast_3
  4 256 178       4.55678054    1989.38500000  ghbeast_5
  5 256 178       4.55678054       4.62924800  ghbeast_6
  6 256 178       4.55678054       3.52096600  ghbeast_7
  8 256 178       4.55678054       6.51260700  ghbeast_9
  9 256 178       4.55678054       0.88230130  ghbeast_10
  10 256 178       4.55678054       0.69797270  ghbeast_11
  11 256 178       4.55678054       6.30167400  ghbeast_12
  12 256 178       4.55678054      13.63741000  ghbeast_13
  1 256 179       4.53786900      17.08429000  ghbeast_2
  2 256 179       4.53786900       7.83701800  ghbeast_3
  4 256 179       4.53786900    1989.38500000  ghbeast_5
  5 256 179       4.53786900       4.62924800  ghbeast_6
  6 256 179       4.53786900       3.52096600  ghbeast_7
  8 256 179       4.53786900       6.51260700  ghbeast_9
  9 256 179       4.53786900       0.88230130  ghbeast_10
  10 256 179       4.53786900       0.69797270  ghbeast_11
  11 256 179       4.53786900       6.30167400  ghbeast_12
  12 256 179       4.53786900      13.63741000  ghbeast_13
  1 256 180       4.53675269      17.08429000  ghbeast_2
  2 256 180       4.53675269       7.83701800  ghbeast_3
  4 256 180       4.53675269    1989.38500000  ghbeast_5
  5 256 180       4.53675269       4.62924800  ghbeast_6
  6 256 180       4.53675269       3.52096600  ghbeast_7
  8 256 180       4.53675269       6.51260700  ghbeast_9
  9 256 180       4.53675269       0.88230130  ghbeast_10
  10 256 180       4.53675269       0.69797270  ghbeast_11
  11 256 180       4.53675269       6.30167400  ghbeast_12
  12 256 180       4.53675269      13.63741000  ghbeast_13
  1 256 181       4.54086850      17.08429000  ghbeast_2
  2 256 181       4.54086850       7.83701800  ghbeast_3
  4 256 181       4.54086850    1989.38500000  ghbeast_5
  5 256 181       4.54086850       4.62924800  ghbeast_6
  6 256 181       4.54086850       3.52096600  ghbeast_7
  8 256 181       4.54086850       6.51260700  ghbeast_9
  9 256 181       4.54086850       0.88230130  ghbeast_10
  10 256 181       4.54086850       0.69797270  ghbeast_11
  11 256 181       4.54086850       6.30167400  ghbeast_12
  12 256 181       4.54086850      13.63741000  ghbeast_13
  1 256 182       4.53691099      17.08429000  ghbeast_2
  2 256 182       4.53691099       7.83701800  ghbeast_3
  4 256 182       4.53691099    1989.38500000  ghbeast_5
  5 256 182       4.53691099       4.62924800  ghbeast_6
  6 256 182       4.53691099       3.52096600  ghbeast_7
  8 256 182       4.53691099       6.51260700  ghbeast_9
  9 256 182       4.53691099       0.88230130  ghbeast_10
  10 256 182       4.53691099       0.69797270  ghbeast_11
  11 256 182       4.53691099       6.30167400  ghbeast_12
  12 256 182       4.53691099      13.63741000  ghbeast_13
  1 256 183       4.51855760      17.08429000  ghbeast_2
  2 256 183       4.51855760       7.83701800  ghbeast_3
  4 256 183       4.51855760    1989.38500000  ghbeast_5
  5 256 183       4.51855760       4.62924800  ghbeast_6
  6 256 183       4.51855760       3.52096600  ghbeast_7
  8 256 183       4.51855760       6.51260700  ghbeast_9
  9 256 183       4.51855760       0.88230130  ghbeast_10
  10 256 183       4.51855760       0.69797270  ghbeast_11
  11 256 183       4.51855760       6.30167400  ghbeast_12
  12 256 183       4.51855760      13.63741000  ghbeast_13
  1 256 184       4.52599853      17.08429000  ghbeast_2
  2 256 184       4.52599853       7.83701800  ghbeast_3
  4 256 184       4.52599853    1989.38500000  ghbeast_5
  5 256 184       4.52599853       4.62924800  ghbeast_6
  6 256 184       4.52599853       3.52096600  ghbeast_7
  8 256 184       4.52599853       6.51260700  ghbeast_9
  9 256 184       4.52599853       0.88230130  ghbeast_10
  10 256 184       4.52599853       0.69797270  ghbeast_11
  11 256 184       4.52599853       6.30167400  ghbeast_12
  12 256 184       4.52599853      13.63741000  ghbeast_13
  1 256 185       4.52758563      17.08429000  ghbeast_2
  2 256 185       4.52758563       7.83701800  ghbeast_3
  4 256 185       4.52758563    1989.38500000  ghbeast_5
  5 256 185       4.52758563       4.62924800  ghbeast_6
  6 256 185       4.52758563       3.52096600  ghbeast_7
  8 256 185       4.52758563       6.51260700  ghbeast_9
  9 256 185       4.52758563       0.88230130  ghbeast_10
  10 256 185       4.52758563       0.69797270  ghbeast_11
  11 256 185       4.52758563       6.30167400  ghbeast_12
  12 256 185       4.52758563      13.63741000  ghbeast_13
  1 256 186       4.52101494      17.08429000  ghbeast_2
  2 256 186       4.52101494       7.83701800  ghbeast_3
  4 256 186       4.52101494    1989.38500000  ghbeast_5
  5 256 186       4.52101494       4.62924800  ghbeast_6
  6 256 186       4.52101494       3.52096600  ghbeast_7
  8 256 186       4.52101494       6.51260700  ghbeast_9
  9 256 186       4.52101494       0.88230130  ghbeast_10
  10 256 186       4.52101494       0.69797270  ghbeast_11
  11 256 186       4.52101494       6.30167400  ghbeast_12
  12 256 186       4.52101494      13.63741000  ghbeast_13
  1 256 187       4.52001511      17.08429000  ghbeast_2
  2 256 187       4.52001511       7.83701800  ghbeast_3
  4 256 187       4.52001511    1989.38500000  ghbeast_5
  5 256 187       4.52001511       4.62924800  ghbeast_6
  6 256 187       4.52001511       3.52096600  ghbeast_7
  8 256 187       4.52001511       6.51260700  ghbeast_9
  9 256 187       4.52001511       0.88230130  ghbeast_10
  10 256 187       4.52001511       0.69797270  ghbeast_11
  11 256 187       4.52001511       6.30167400  ghbeast_12
  12 256 187       4.52001511      13.63741000  ghbeast_13
  1 256 188       4.50739703      17.08429000  ghbeast_2
  2 256 188       4.50739703       7.83701800  ghbeast_3
  4 256 188       4.50739703    1989.38500000  ghbeast_5
  5 256 188       4.50739703       4.62924800  ghbeast_6
  6 256 188       4.50739703       3.52096600  ghbeast_7
  8 256 188       4.50739703       6.51260700  ghbeast_9
  9 256 188       4.50739703       0.88230130  ghbeast_10
  10 256 188       4.50739703       0.69797270  ghbeast_11
  11 256 188       4.50739703       6.30167400  ghbeast_12
  12 256 188       4.50739703      13.63741000  ghbeast_13
  1 256 189       4.48675074      17.08429000  ghbeast_2
  2 256 189       4.48675074       7.83701800  ghbeast_3
  4 256 189       4.48675074    1989.38500000  ghbeast_5
  5 256 189       4.48675074       4.62924800  ghbeast_6
  6 256 189       4.48675074       3.52096600  ghbeast_7
  8 256 189       4.48675074       6.51260700  ghbeast_9
  9 256 189       4.48675074       0.88230130  ghbeast_10
  10 256 189       4.48675074       0.69797270  ghbeast_11
  11 256 189       4.48675074       6.30167400  ghbeast_12
  12 256 189       4.48675074      13.63741000  ghbeast_13
  1 256 190       4.46197020      17.08429000  ghbeast_2
  2 256 190       4.46197020       7.83701800  ghbeast_3
  4 256 190       4.46197020    1989.38500000  ghbeast_5
  5 256 190       4.46197020       4.62924800  ghbeast_6
  6 256 190       4.46197020       3.52096600  ghbeast_7
  8 256 190       4.46197020       6.51260700  ghbeast_9
  9 256 190       4.46197020       0.88230130  ghbeast_10
  10 256 190       4.46197020       0.69797270  ghbeast_11
  11 256 190       4.46197020       6.30167400  ghbeast_12
  12 256 190       4.46197020      13.63741000  ghbeast_13
  1 256 191       4.42482870      17.08429000  ghbeast_2
  2 256 191       4.42482870       7.83701800  ghbeast_3
  4 256 191       4.42482870    1989.38500000  ghbeast_5
  5 256 191       4.42482870       4.62924800  ghbeast_6
  6 256 191       4.42482870       3.52096600  ghbeast_7
  8 256 191       4.42482870       6.51260700  ghbeast_9
  9 256 191       4.42482870       0.88230130  ghbeast_10
  10 256 191       4.42482870       0.69797270  ghbeast_11
  11 256 191       4.42482870       6.30167400  ghbeast_12
  12 256 191       4.42482870      13.63741000  ghbeast_13
  1 256 192       4.37603205      17.08429000  ghbeast_2
  2 256 192       4.37603205       7.83701800  ghbeast_3
  4 256 192       4.37603205    1989.38500000  ghbeast_5
  5 256 192       4.37603205       4.62924800  ghbeast_6
  6 256 192       4.37603205       3.52096600  ghbeast_7
  8 256 192       4.37603205       6.51260700  ghbeast_9
  9 256 192       4.37603205       0.88230130  ghbeast_10
  10 256 192       4.37603205       0.69797270  ghbeast_11
  11 256 192       4.37603205       6.30167400  ghbeast_12
  12 256 192       4.37603205      13.63741000  ghbeast_13
  1 256 193       4.32571965      17.08429000  ghbeast_2
  2 256 193       4.32571965       7.83701800  ghbeast_3
  4 256 193       4.32571965    1989.38500000  ghbeast_5
  5 256 193       4.32571965       4.62924800  ghbeast_6
  6 256 193       4.32571965       3.52096600  ghbeast_7
  8 256 193       4.32571965       6.51260700  ghbeast_9
  9 256 193       4.32571965       0.88230130  ghbeast_10
  10 256 193       4.32571965       0.69797270  ghbeast_11
  11 256 193       4.32571965       6.30167400  ghbeast_12
  12 256 193       4.32571965      13.63741000  ghbeast_13
  1 256 194       4.26672576      17.08429000  ghbeast_2
  2 256 194       4.26672576       7.83701800  ghbeast_3
  4 256 194       4.26672576    1989.38500000  ghbeast_5
  5 256 194       4.26672576       4.62924800  ghbeast_6
  6 256 194       4.26672576       3.52096600  ghbeast_7
  8 256 194       4.26672576       6.51260700  ghbeast_9
  9 256 194       4.26672576       0.88230130  ghbeast_10
  10 256 194       4.26672576       0.69797270  ghbeast_11
  11 256 194       4.26672576       6.30167400  ghbeast_12
  12 256 194       4.26672576      13.63741000  ghbeast_13
  1 256 195       4.23477905      17.08429000  ghbeast_2
  2 256 195       4.23477905       7.83701800  ghbeast_3
  4 256 195       4.23477905    1989.38500000  ghbeast_5
  5 256 195       4.23477905       4.62924800  ghbeast_6
  6 256 195       4.23477905       3.52096600  ghbeast_7
  8 256 195       4.23477905       6.51260700  ghbeast_9
  9 256 195       4.23477905       0.88230130  ghbeast_10
  10 256 195       4.23477905       0.69797270  ghbeast_11
  11 256 195       4.23477905       6.30167400  ghbeast_12
  12 256 195       4.23477905      13.63741000  ghbeast_13
  1 256 196       4.23744268      17.08429000  ghbeast_2
  2 256 196       4.23744268       7.83701800  ghbeast_3
  4 256 196       4.23744268    1989.38500000  ghbeast_5
  5 256 196       4.23744268       4.62924800  ghbeast_6
  6 256 196       4.23744268       3.52096600  ghbeast_7
  8 256 196       4.23744268       6.51260700  ghbeast_9
  9 256 196       4.23744268       0.88230130  ghbeast_10
  10 256 196       4.23744268       0.69797270  ghbeast_11
  11 256 196       4.23744268       6.30167400  ghbeast_12
  12 256 196       4.23744268      13.63741000  ghbeast_13
  1 256 197       4.26576570      17.08429000  ghbeast_2
  2 256 197       4.26576570       7.83701800  ghbeast_3
  4 256 197       4.26576570    1989.38500000  ghbeast_5
  5 256 197       4.26576570       4.62924800  ghbeast_6
  6 256 197       4.26576570       3.52096600  ghbeast_7
  8 256 197       4.26576570       6.51260700  ghbeast_9
  9 256 197       4.26576570       0.88230130  ghbeast_10
  10 256 197       4.26576570       0.69797270  ghbeast_11
  11 256 197       4.26576570       6.30167400  ghbeast_12
  12 256 197       4.26576570      13.63741000  ghbeast_13
  1 256 198       4.25347406      17.08429000  ghbeast_2
  2 256 198       4.25347406       7.83701800  ghbeast_3
  4 256 198       4.25347406    1989.38500000  ghbeast_5
  5 256 198       4.25347406       4.62924800  ghbeast_6
  6 256 198       4.25347406       3.52096600  ghbeast_7
  8 256 198       4.25347406       6.51260700  ghbeast_9
  9 256 198       4.25347406       0.88230130  ghbeast_10
  10 256 198       4.25347406       0.69797270  ghbeast_11
  11 256 198       4.25347406       6.30167400  ghbeast_12
  12 256 198       4.25347406      13.63741000  ghbeast_13
  1 256 199       4.28184794      17.08429000  ghbeast_2
  2 256 199       4.28184794       7.83701800  ghbeast_3
  4 256 199       4.28184794    1989.38500000  ghbeast_5
  5 256 199       4.28184794       4.62924800  ghbeast_6
  6 256 199       4.28184794       3.52096600  ghbeast_7
  8 256 199       4.28184794       6.51260700  ghbeast_9
  9 256 199       4.28184794       0.88230130  ghbeast_10
  10 256 199       4.28184794       0.69797270  ghbeast_11
  11 256 199       4.28184794       6.30167400  ghbeast_12
  12 256 199       4.28184794      13.63741000  ghbeast_13
  1 256 200       4.29427696      17.08429000  ghbeast_2
  2 256 200       4.29427696       7.83701800  ghbeast_3
  4 256 200       4.29427696    1989.38500000  ghbeast_5
  5 256 200       4.29427696       4.62924800  ghbeast_6
  6 256 200       4.29427696       3.52096600  ghbeast_7
  8 256 200       4.29427696       6.51260700  ghbeast_9
  9 256 200       4.29427696       0.88230130  ghbeast_10
  10 256 200       4.29427696       0.69797270  ghbeast_11
  11 256 200       4.29427696       6.30167400  ghbeast_12
  12 256 200       4.29427696      13.63741000  ghbeast_13
  1 256 201       4.25578992      17.08429000  ghbeast_2
  2 256 201       4.25578992       7.83701800  ghbeast_3
  4 256 201       4.25578992    1989.38500000  ghbeast_5
  5 256 201       4.25578992       4.62924800  ghbeast_6
  6 256 201       4.25578992       3.52096600  ghbeast_7
  8 256 201       4.25578992       6.51260700  ghbeast_9
  9 256 201       4.25578992       0.88230130  ghbeast_10
  10 256 201       4.25578992       0.69797270  ghbeast_11
  11 256 201       4.25578992       6.30167400  ghbeast_12
  12 256 201       4.25578992      13.63741000  ghbeast_13
  1 256 202       4.25820379      17.08429000  ghbeast_2
  2 256 202       4.25820379       7.83701800  ghbeast_3
  4 256 202       4.25820379    1989.38500000  ghbeast_5
  5 256 202       4.25820379       4.62924800  ghbeast_6
  6 256 202       4.25820379       3.52096600  ghbeast_7
  8 256 202       4.25820379       6.51260700  ghbeast_9
  9 256 202       4.25820379       0.88230130  ghbeast_10
  10 256 202       4.25820379       0.69797270  ghbeast_11
  11 256 202       4.25820379       6.30167400  ghbeast_12
  12 256 202       4.25820379      13.63741000  ghbeast_13
  1 256 203       4.23471426      17.08429000  ghbeast_2
  2 256 203       4.23471426       7.83701800  ghbeast_3
  4 256 203       4.23471426    1989.38500000  ghbeast_5
  5 256 203       4.23471426       4.62924800  ghbeast_6
  6 256 203       4.23471426       3.52096600  ghbeast_7
  8 256 203       4.23471426       6.51260700  ghbeast_9
  9 256 203       4.23471426       0.88230130  ghbeast_10
  10 256 203       4.23471426       0.69797270  ghbeast_11
  11 256 203       4.23471426       6.30167400  ghbeast_12
  12 256 203       4.23471426      13.63741000  ghbeast_13
  1 256 204       4.16985874      17.08429000  ghbeast_2
  2 256 204       4.16985874       7.83701800  ghbeast_3
  4 256 204       4.16985874    1989.38500000  ghbeast_5
  5 256 204       4.16985874       4.62924800  ghbeast_6
  6 256 204       4.16985874       3.52096600  ghbeast_7
  8 256 204       4.16985874       6.51260700  ghbeast_9
  9 256 204       4.16985874       0.88230130  ghbeast_10
  10 256 204       4.16985874       0.69797270  ghbeast_11
  11 256 204       4.16985874       6.30167400  ghbeast_12
  12 256 204       4.16985874      13.63741000  ghbeast_13
  1 256 205       4.13831722      17.08429000  ghbeast_2
  2 256 205       4.13831722       7.83701800  ghbeast_3
  4 256 205       4.13831722    1989.38500000  ghbeast_5
  5 256 205       4.13831722       4.62924800  ghbeast_6
  6 256 205       4.13831722       3.52096600  ghbeast_7
  8 256 205       4.13831722       6.51260700  ghbeast_9
  9 256 205       4.13831722       0.88230130  ghbeast_10
  10 256 205       4.13831722       0.69797270  ghbeast_11
  11 256 205       4.13831722       6.30167400  ghbeast_12
  12 256 205       4.13831722      13.63741000  ghbeast_13
  1 256 206       4.07637304      17.08429000  ghbeast_2
  2 256 206       4.07637304       7.83701800  ghbeast_3
  4 256 206       4.07637304    1989.38500000  ghbeast_5
  5 256 206       4.07637304       4.62924800  ghbeast_6
  6 256 206       4.07637304       3.52096600  ghbeast_7
  8 256 206       4.07637304       6.51260700  ghbeast_9
  9 256 206       4.07637304       0.88230130  ghbeast_10
  10 256 206       4.07637304       0.69797270  ghbeast_11
  11 256 206       4.07637304       6.30167400  ghbeast_12
  12 256 206       4.07637304      13.63741000  ghbeast_13
  1 256 207       3.98359723      17.08429000  ghbeast_2
  2 256 207       3.98359723       7.83701800  ghbeast_3
  4 256 207       3.98359723    1989.38500000  ghbeast_5
  5 256 207       3.98359723       4.62924800  ghbeast_6
  6 256 207       3.98359723       3.52096600  ghbeast_7
  8 256 207       3.98359723       6.51260700  ghbeast_9
  9 256 207       3.98359723       0.88230130  ghbeast_10
  10 256 207       3.98359723       0.69797270  ghbeast_11
  11 256 207       3.98359723       6.30167400  ghbeast_12
  12 256 207       3.98359723      13.63741000  ghbeast_13
  1 256 208       3.91363346      17.08429000  ghbeast_2
  2 256 208       3.91363346       7.83701800  ghbeast_3
  4 256 208       3.91363346    1989.38500000  ghbeast_5
  5 256 208       3.91363346       4.62924800  ghbeast_6
  6 256 208       3.91363346       3.52096600  ghbeast_7
  8 256 208       3.91363346       6.51260700  ghbeast_9
  9 256 208       3.91363346       0.88230130  ghbeast_10
  10 256 208       3.91363346       0.69797270  ghbeast_11
  11 256 208       3.91363346       6.30167400  ghbeast_12
  12 256 208       3.91363346      13.63741000  ghbeast_13
  1 256 209       3.88823652      17.08429000  ghbeast_2
  2 256 209       3.88823652       7.83701800  ghbeast_3
  4 256 209       3.88823652    1989.38500000  ghbeast_5
  5 256 209       3.88823652       4.62924800  ghbeast_6
  6 256 209       3.88823652       3.52096600  ghbeast_7
  8 256 209       3.88823652       6.51260700  ghbeast_9
  9 256 209       3.88823652       0.88230130  ghbeast_10
  10 256 209       3.88823652       0.69797270  ghbeast_11
  11 256 209       3.88823652       6.30167400  ghbeast_12
  12 256 209       3.88823652      13.63741000  ghbeast_13
  1 256 210       3.80045906      17.08429000  ghbeast_2
  2 256 210       3.80045906       7.83701800  ghbeast_3
  4 256 210       3.80045906    1989.38500000  ghbeast_5
  5 256 210       3.80045906       4.62924800  ghbeast_6
  6 256 210       3.80045906       3.52096600  ghbeast_7
  8 256 210       3.80045906       6.51260700  ghbeast_9
  10 256 210       3.80045906       0.69797270  ghbeast_11
  11 256 210       3.80045906       6.30167400  ghbeast_12
  12 256 210       3.80045906      13.63741000  ghbeast_13
  1 256 211       3.76016674      17.08429000  ghbeast_2
  2 256 211       3.76016674       7.83701800  ghbeast_3
  4 256 211       3.76016674    1989.38500000  ghbeast_5
  5 256 211       3.76016674       4.62924800  ghbeast_6
  6 256 211       3.76016674       3.52096600  ghbeast_7
  8 256 211       3.76016674       6.51260700  ghbeast_9
  10 256 211       3.76016674       0.69797270  ghbeast_11
  11 256 211       3.76016674       6.30167400  ghbeast_12
  12 256 211       3.76016674      13.63741000  ghbeast_13
  1 256 212       3.59335031      17.08429000  ghbeast_2
  2 256 212       3.59335031       7.83701800  ghbeast_3
  4 256 212       3.59335031    1989.38500000  ghbeast_5
  5 256 212       3.59335031       4.62924800  ghbeast_6
  6 256 212       3.59335031       3.52096600  ghbeast_7
  10 256 212       3.59335031       0.69797270  ghbeast_11
  11 256 212       3.59335031       6.30167400  ghbeast_12
  1 256 213       3.35561620      17.08429000  ghbeast_2
  2 256 213       3.35561620       7.83701800  ghbeast_3
  4 256 213       3.35561620    1989.38500000  ghbeast_5
  5 256 213       3.35561620       4.62924800  ghbeast_6
  6 256 213       3.35561620       3.52096600  ghbeast_7
  10 256 213       3.35561620       0.69797270  ghbeast_11
  11 256 213       3.35561620       6.30167400  ghbeast_12
  12 256 213       3.35561620      13.63741000  ghbeast_13
  1 256 214       3.25724165      17.08429000  ghbeast_2
  2 256 214       3.25724165       7.83701800  ghbeast_3
  4 256 214       3.25724165    1989.38500000  ghbeast_5
  5 256 214       3.25724165       4.62924800  ghbeast_6
  6 256 214       3.25724165       3.52096600  ghbeast_7
  9 256 214       3.25724165       0.88230130  ghbeast_10
  10 256 214       3.25724165       0.69797270  ghbeast_11
  11 256 214       3.25724165       6.30167400  ghbeast_12
  12 256 214       3.25724165      13.63741000  ghbeast_13
  1 256 215       3.31370971      17.08429000  ghbeast_2
  2 256 215       3.31370971       7.83701800  ghbeast_3
  4 256 215       3.31370971    1989.38500000  ghbeast_5
  5 256 215       3.31370971       4.62924800  ghbeast_6
  6 256 215       3.31370971       3.52096600  ghbeast_7
  9 256 215       3.31370971       0.88230130  ghbeast_10
  10 256 215       3.31370971       0.69797270  ghbeast_11
  11 256 215       3.31370971       6.30167400  ghbeast_12
  12 256 215       3.31370971      13.63741000  ghbeast_13
  1 256 216       3.30769020      17.08429000  ghbeast_2
  2 256 216       3.30769020       7.83701800  ghbeast_3
  4 256 216       3.30769020    1989.38500000  ghbeast_5
  5 256 216       3.30769020       4.62924800  ghbeast_6
  6 256 216       3.30769020       3.52096600  ghbeast_7
  9 256 216       3.30769020       0.88230130  ghbeast_10
  10 256 216       3.30769020       0.69797270  ghbeast_11
  11 256 216       3.30769020       6.30167400  ghbeast_12
  12 256 216       3.30769020      13.63741000  ghbeast_13
  1 256 217       3.36094018      17.08429000  ghbeast_2
  2 256 217       3.36094018       7.83701800  ghbeast_3
  4 256 217       3.36094018    1989.38500000  ghbeast_5
  5 256 217       3.36094018       4.62924800  ghbeast_6
  6 256 217       3.36094018       3.52096600  ghbeast_7
  9 256 217       3.36094018       0.88230130  ghbeast_10
  10 256 217       3.36094018       0.69797270  ghbeast_11
  11 256 217       3.36094018       6.30167400  ghbeast_12
  12 256 217       3.36094018      13.63741000  ghbeast_13
  1 256 218       3.38950885      17.08429000  ghbeast_2
  2 256 218       3.38950885       7.83701800  ghbeast_3
  4 256 218       3.38950885    1989.38500000  ghbeast_5
  5 256 218       3.38950885       4.62924800  ghbeast_6
  6 256 218       3.38950885       3.52096600  ghbeast_7
  9 256 218       3.38950885       0.88230130  ghbeast_10
  10 256 218       3.38950885       0.69797270  ghbeast_11
  11 256 218       3.38950885       6.30167400  ghbeast_12
  12 256 218       3.38950885      13.63741000  ghbeast_13
  1 256 219       3.33143236      17.08429000  ghbeast_2
  2 256 219       3.33143236       7.83701800  ghbeast_3
  5 256 219       3.33143236       4.62924800  ghbeast_6
  6 256 219       3.33143236       3.52096600  ghbeast_7
  9 256 219       3.33143236       0.88230130  ghbeast_10
  10 256 219       3.33143236       0.69797270  ghbeast_11
  11 256 219       3.33143236       6.30167400  ghbeast_12
  12 256 219       3.33143236      13.63741000  ghbeast_13
  1 256 220       3.30281816      17.08429000  ghbeast_2
  2 256 220       3.30281816       7.83701800  ghbeast_3
  5 256 220       3.30281816       4.62924800  ghbeast_6
  6 256 220       3.30281816       3.52096600  ghbeast_7
  9 256 220       3.30281816       0.88230130  ghbeast_10
  10 256 220       3.30281816       0.69797270  ghbeast_11
  11 256 220       3.30281816       6.30167400  ghbeast_12
  12 256 220       3.30281816      13.63741000  ghbeast_13
  1 256 221       3.18855576      17.08429000  ghbeast_2
  2 256 221       3.18855576       7.83701800  ghbeast_3
  5 256 221       3.18855576       4.62924800  ghbeast_6
  6 256 221       3.18855576       3.52096600  ghbeast_7
  9 256 221       3.18855576       0.88230130  ghbeast_10
  10 256 221       3.18855576       0.69797270  ghbeast_11
  11 256 221       3.18855576       6.30167400  ghbeast_12
  12 256 221       3.18855576      13.63741000  ghbeast_13
  1 256 222       3.00369516      17.08429000  ghbeast_2
  2 256 222       3.00369516       7.83701800  ghbeast_3
  5 256 222       3.00369516       4.62924800  ghbeast_6
  6 256 222       3.00369516       3.52096600  ghbeast_7
  9 256 222       3.00369516       0.88230130  ghbeast_10
  10 256 222       3.00369516       0.69797270  ghbeast_11
  11 256 222       3.00369516       6.30167400  ghbeast_12
  12 256 222       3.00369516      13.63741000  ghbeast_13
  1 256 223       2.85923638      17.08429000  ghbeast_2
  4 256 223       2.85923638    1989.38500000  ghbeast_5
  5 256 223       2.85923638       4.62924800  ghbeast_6
  6 256 223       2.85923638       3.52096600  ghbeast_7
  9 256 223       2.85923638       0.88230130  ghbeast_10
  10 256 223       2.85923638       0.69797270  ghbeast_11