# File generated by Flopy version 3.3.4 on 11/29/2021 at 11:50:22.
BEGIN options
  LENGTH_UNITS  feet
  XORIGIN  3.55047068E+05
  YORIGIN  3.77693147E+06
END options

BEGIN dimensions
  NLAY  12
  NROW  256
  NCOL  312
END dimensions

BEGIN griddata
  delr
    CONSTANT     659.96646693
  delc
    CONSTANT     659.96646693
  top
    OPEN/CLOSE  '..\external_files\arrays\top.asc'  FACTOR  1.0
  botm
    OPEN/CLOSE  '..\external_files\arrays\botm.asc'  FACTOR  1.0
  idomain
    OPEN/CLOSE  '..\external_files\arrays\idomain.asc'  FACTOR  1
END griddata

