# File generated by Flopy version 3.3.4 on 10/07/2021 at 09:43:05.
BEGIN options
  READASARRAYS
  SAVE_FLOWS
END options

BEGIN period  1
  irch
    OPEN/CLOSE  '..\external_files\arrays\irch.asc'  FACTOR  1
  recharge
    OPEN/CLOSE  '..\external_files\arrays\RCH\rch_001.asc'  FACTOR  1.0
END period  1

BEGIN period  2
  irch
    OPEN/CLOSE  '..\external_files\arrays\irch.asc'  FACTOR  1
  recharge
    OPEN/CLOSE  '..\external_files\arrays\RCH\rch_002.asc'  FACTOR  1.0
END period  2

BEGIN period  3
  irch
    OPEN/CLOSE  '..\external_files\arrays\irch.asc'  FACTOR  1
  recharge
    OPEN/CLOSE  '..\external_files\arrays\RCH\rch_003.asc'  FACTOR  1.0
END period  3

BEGIN period  4
  irch
    OPEN/CLOSE  '..\external_files\arrays\irch.asc'  FACTOR  1
  recharge
    OPEN/CLOSE  '..\external_files\arrays\RCH\rch_004.asc'  FACTOR  1.0
END period  4

BEGIN period  5
  irch
    OPEN/CLOSE  '..\external_files\arrays\irch.asc'  FACTOR  1
  recharge
    OPEN/CLOSE  '..\external_files\arrays\RCH\rch_005.asc'  FACTOR  1.0
END period  5

BEGIN period  6
  irch
    OPEN/CLOSE  '..\external_files\arrays\irch.asc'  FACTOR  1
  recharge
    OPEN/CLOSE  '..\external_files\arrays\RCH\rch_006.asc'  FACTOR  1.0
END period  6

BEGIN period  7
  irch
    OPEN/CLOSE  '..\external_files\arrays\irch.asc'  FACTOR  1
  recharge
    OPEN/CLOSE  '..\external_files\arrays\RCH\rch_007.asc'  FACTOR  1.0
END period  7

BEGIN period  8
  irch
    OPEN/CLOSE  '..\external_files\arrays\irch.asc'  FACTOR  1
  recharge
    OPEN/CLOSE  '..\external_files\arrays\RCH\rch_008.asc'  FACTOR  1.0
END period  8

BEGIN period  9
  irch
    OPEN/CLOSE  '..\external_files\arrays\irch.asc'  FACTOR  1
  recharge
    OPEN/CLOSE  '..\external_files\arrays\RCH\rch_009.asc'  FACTOR  1.0
END period  9

BEGIN period  10
  irch
    OPEN/CLOSE  '..\external_files\arrays\irch.asc'  FACTOR  1
  recharge
    OPEN/CLOSE  '..\external_files\arrays\RCH\rch_010.asc'  FACTOR  1.0
END period  10

BEGIN period  11
  irch
    OPEN/CLOSE  '..\external_files\arrays\irch.asc'  FACTOR  1
  recharge
    OPEN/CLOSE  '..\external_files\arrays\RCH\rch_011.asc'  FACTOR  1.0
END period  11

BEGIN period  12
  irch
    OPEN/CLOSE  '..\external_files\arrays\irch.asc'  FACTOR  1
  recharge
    OPEN/CLOSE  '..\external_files\arrays\RCH\rch_012.asc'  FACTOR  1.0
END period  12

BEGIN period  13
  irch
    OPEN/CLOSE  '..\external_files\arrays\irch.asc'  FACTOR  1
  recharge
    OPEN/CLOSE  '..\external_files\arrays\RCH\rch_013.asc'  FACTOR  1.0
END period  13

BEGIN period  14
  irch
    OPEN/CLOSE  '..\external_files\arrays\irch.asc'  FACTOR  1
  recharge
    OPEN/CLOSE  '..\external_files\arrays\RCH\rch_014.asc'  FACTOR  1.0
END period  14

BEGIN period  15
  irch
    OPEN/CLOSE  '..\external_files\arrays\irch.asc'  FACTOR  1
  recharge
    OPEN/CLOSE  '..\external_files\arrays\RCH\rch_015.asc'  FACTOR  1.0
END period  15

BEGIN period  16
  irch
    OPEN/CLOSE  '..\external_files\arrays\irch.asc'  FACTOR  1
  recharge
    OPEN/CLOSE  '..\external_files\arrays\RCH\rch_016.asc'  FACTOR  1.0
END period  16

BEGIN period  17
  irch
    OPEN/CLOSE  '..\external_files\arrays\irch.asc'  FACTOR  1
  recharge
    OPEN/CLOSE  '..\external_files\arrays\RCH\rch_017.asc'  FACTOR  1.0
END period  17

BEGIN period  18
  irch
    OPEN/CLOSE  '..\external_files\arrays\irch.asc'  FACTOR  1
  recharge
    OPEN/CLOSE  '..\external_files\arrays\RCH\rch_018.asc'  FACTOR  1.0
END period  18

BEGIN period  19
  irch
    OPEN/CLOSE  '..\external_files\arrays\irch.asc'  FACTOR  1
  recharge
    OPEN/CLOSE  '..\external_files\arrays\RCH\rch_019.asc'  FACTOR  1.0
END period  19

BEGIN period  20
  irch
    OPEN/CLOSE  '..\external_files\arrays\irch.asc'  FACTOR  1
  recharge
    OPEN/CLOSE  '..\external_files\arrays\RCH\rch_020.asc'  FACTOR  1.0
END period  20

BEGIN period  21
  irch
    OPEN/CLOSE  '..\external_files\arrays\irch.asc'  FACTOR  1
  recharge
    OPEN/CLOSE  '..\external_files\arrays\RCH\rch_021.asc'  FACTOR  1.0
END period  21

BEGIN period  22
  irch
    OPEN/CLOSE  '..\external_files\arrays\irch.asc'  FACTOR  1
  recharge
    OPEN/CLOSE  '..\external_files\arrays\RCH\rch_022.asc'  FACTOR  1.0
END period  22

BEGIN period  23
  irch
    OPEN/CLOSE  '..\external_files\arrays\irch.asc'  FACTOR  1
  recharge
    OPEN/CLOSE  '..\external_files\arrays\RCH\rch_023.asc'  FACTOR  1.0
END period  23

BEGIN period  24
  irch
    OPEN/CLOSE  '..\external_files\arrays\irch.asc'  FACTOR  1
  recharge
    OPEN/CLOSE  '..\external_files\arrays\RCH\rch_024.asc'  FACTOR  1.0
END period  24

BEGIN period  25
  irch
    OPEN/CLOSE  '..\external_files\arrays\irch.asc'  FACTOR  1
  recharge
    OPEN/CLOSE  '..\external_files\arrays\RCH\rch_025.asc'  FACTOR  1.0
END period  25

BEGIN period  26
  irch
    OPEN/CLOSE  '..\external_files\arrays\irch.asc'  FACTOR  1
  recharge
    OPEN/CLOSE  '..\external_files\arrays\RCH\rch_026.asc'  FACTOR  1.0
END period  26

BEGIN period  27
  irch
    OPEN/CLOSE  '..\external_files\arrays\irch.asc'  FACTOR  1
  recharge
    OPEN/CLOSE  '..\external_files\arrays\RCH\rch_027.asc'  FACTOR  1.0
END period  27

BEGIN period  28
  irch
    OPEN/CLOSE  '..\external_files\arrays\irch.asc'  FACTOR  1
  recharge
    OPEN/CLOSE  '..\external_files\arrays\RCH\rch_028.asc'  FACTOR  1.0
END period  28

BEGIN period  29
  irch
    OPEN/CLOSE  '..\external_files\arrays\irch.asc'  FACTOR  1
  recharge
    OPEN/CLOSE  '..\external_files\arrays\RCH\rch_029.asc'  FACTOR  1.0
END period  29

BEGIN period  30
  irch
    OPEN/CLOSE  '..\external_files\arrays\irch.asc'  FACTOR  1
  recharge
    OPEN/CLOSE  '..\external_files\arrays\RCH\rch_030.asc'  FACTOR  1.0
END period  30

BEGIN period  31
  irch
    OPEN/CLOSE  '..\external_files\arrays\irch.asc'  FACTOR  1
  recharge
    OPEN/CLOSE  '..\external_files\arrays\RCH\rch_031.asc'  FACTOR  1.0
END period  31

BEGIN period  32
  irch
    OPEN/CLOSE  '..\external_files\arrays\irch.asc'  FACTOR  1
  recharge
    OPEN/CLOSE  '..\external_files\arrays\RCH\rch_032.asc'  FACTOR  1.0
END period  32

BEGIN period  33
  irch
    OPEN/CLOSE  '..\external_files\arrays\irch.asc'  FACTOR  1
  recharge
    OPEN/CLOSE  '..\external_files\arrays\RCH\rch_033.asc'  FACTOR  1.0
END period  33

BEGIN period  34
  irch
    OPEN/CLOSE  '..\external_files\arrays\irch.asc'  FACTOR  1
  recharge
    OPEN/CLOSE  '..\external_files\arrays\RCH\rch_034.asc'  FACTOR  1.0
END period  34

BEGIN period  35
  irch
    OPEN/CLOSE  '..\external_files\arrays\irch.asc'  FACTOR  1
  recharge
    OPEN/CLOSE  '..\external_files\arrays\RCH\rch_035.asc'  FACTOR  1.0
END period  35

BEGIN period  36
  irch
    OPEN/CLOSE  '..\external_files\arrays\irch.asc'  FACTOR  1
  recharge
    OPEN/CLOSE  '..\external_files\arrays\RCH\rch_036.asc'  FACTOR  1.0
END period  36

BEGIN period  37
  irch
    OPEN/CLOSE  '..\external_files\arrays\irch.asc'  FACTOR  1
  recharge
    OPEN/CLOSE  '..\external_files\arrays\RCH\rch_037.asc'  FACTOR  1.0
END period  37

BEGIN period  38
  irch
    OPEN/CLOSE  '..\external_files\arrays\irch.asc'  FACTOR  1
  recharge
    OPEN/CLOSE  '..\external_files\arrays\RCH\rch_038.asc'  FACTOR  1.0
END period  38

BEGIN period  39
  irch
    OPEN/CLOSE  '..\external_files\arrays\irch.asc'  FACTOR  1
  recharge
    OPEN/CLOSE  '..\external_files\arrays\RCH\rch_039.asc'  FACTOR  1.0
END period  39

BEGIN period  40
  irch
    OPEN/CLOSE  '..\external_files\arrays\irch.asc'  FACTOR  1
  recharge
    OPEN/CLOSE  '..\external_files\arrays\RCH\rch_040.asc'  FACTOR  1.0
END period  40

BEGIN period  41
  irch
    OPEN/CLOSE  '..\external_files\arrays\irch.asc'  FACTOR  1
  recharge
    OPEN/CLOSE  '..\external_files\arrays\RCH\rch_041.asc'  FACTOR  1.0
END period  41

BEGIN period  42
  irch
    OPEN/CLOSE  '..\external_files\arrays\irch.asc'  FACTOR  1
  recharge
    OPEN/CLOSE  '..\external_files\arrays\RCH\rch_042.asc'  FACTOR  1.0
END period  42

BEGIN period  43
  irch
    OPEN/CLOSE  '..\external_files\arrays\irch.asc'  FACTOR  1
  recharge
    OPEN/CLOSE  '..\external_files\arrays\RCH\rch_043.asc'  FACTOR  1.0
END period  43

BEGIN period  44
  irch
    OPEN/CLOSE  '..\external_files\arrays\irch.asc'  FACTOR  1
  recharge
    OPEN/CLOSE  '..\external_files\arrays\RCH\rch_044.asc'  FACTOR  1.0
END period  44

BEGIN period  45
  irch
    OPEN/CLOSE  '..\external_files\arrays\irch.asc'  FACTOR  1
  recharge
    OPEN/CLOSE  '..\external_files\arrays\RCH\rch_045.asc'  FACTOR  1.0
END period  45

BEGIN period  46
  irch
    OPEN/CLOSE  '..\external_files\arrays\irch.asc'  FACTOR  1
  recharge
    OPEN/CLOSE  '..\external_files\arrays\RCH\rch_046.asc'  FACTOR  1.0
END period  46

BEGIN period  47
  irch
    OPEN/CLOSE  '..\external_files\arrays\irch.asc'  FACTOR  1
  recharge
    OPEN/CLOSE  '..\external_files\arrays\RCH\rch_047.asc'  FACTOR  1.0
END period  47

BEGIN period  48
  irch
    OPEN/CLOSE  '..\external_files\arrays\irch.asc'  FACTOR  1
  recharge
    OPEN/CLOSE  '..\external_files\arrays\RCH\rch_048.asc'  FACTOR  1.0
END period  48

BEGIN period  49
  irch
    OPEN/CLOSE  '..\external_files\arrays\irch.asc'  FACTOR  1
  recharge
    OPEN/CLOSE  '..\external_files\arrays\RCH\rch_049.asc'  FACTOR  1.0
END period  49

BEGIN period  50
  irch
    OPEN/CLOSE  '..\external_files\arrays\irch.asc'  FACTOR  1
  recharge
    OPEN/CLOSE  '..\external_files\arrays\RCH\rch_050.asc'  FACTOR  1.0
END period  50

BEGIN period  51
  irch
    OPEN/CLOSE  '..\external_files\arrays\irch.asc'  FACTOR  1
  recharge
    OPEN/CLOSE  '..\external_files\arrays\RCH\rch_051.asc'  FACTOR  1.0
END period  51

BEGIN period  52
  irch
    OPEN/CLOSE  '..\external_files\arrays\irch.asc'  FACTOR  1
  recharge
    OPEN/CLOSE  '..\external_files\arrays\RCH\rch_052.asc'  FACTOR  1.0
END period  52

BEGIN period  53
  irch
    OPEN/CLOSE  '..\external_files\arrays\irch.asc'  FACTOR  1
  recharge
    OPEN/CLOSE  '..\external_files\arrays\RCH\rch_053.asc'  FACTOR  1.0
END period  53

BEGIN period  54
  irch
    OPEN/CLOSE  '..\external_files\arrays\irch.asc'  FACTOR  1
  recharge
    OPEN/CLOSE  '..\external_files\arrays\RCH\rch_054.asc'  FACTOR  1.0
END period  54

BEGIN period  55
  irch
    OPEN/CLOSE  '..\external_files\arrays\irch.asc'  FACTOR  1
  recharge
    OPEN/CLOSE  '..\external_files\arrays\RCH\rch_055.asc'  FACTOR  1.0
END period  55

BEGIN period  56
  irch
    OPEN/CLOSE  '..\external_files\arrays\irch.asc'  FACTOR  1
  recharge
    OPEN/CLOSE  '..\external_files\arrays\RCH\rch_056.asc'  FACTOR  1.0
END period  56

BEGIN period  57
  irch
    OPEN/CLOSE  '..\external_files\arrays\irch.asc'  FACTOR  1
  recharge
    OPEN/CLOSE  '..\external_files\arrays\RCH\rch_057.asc'  FACTOR  1.0
END period  57

BEGIN period  58
  irch
    OPEN/CLOSE  '..\external_files\arrays\irch.asc'  FACTOR  1
  recharge
    OPEN/CLOSE  '..\external_files\arrays\RCH\rch_058.asc'  FACTOR  1.0
END period  58

BEGIN period  59
  irch
    OPEN/CLOSE  '..\external_files\arrays\irch.asc'  FACTOR  1
  recharge
    OPEN/CLOSE  '..\external_files\arrays\RCH\rch_059.asc'  FACTOR  1.0
END period  59

BEGIN period  60
  irch
    OPEN/CLOSE  '..\external_files\arrays\irch.asc'  FACTOR  1
  recharge
    OPEN/CLOSE  '..\external_files\arrays\RCH\rch_060.asc'  FACTOR  1.0
END period  60

BEGIN period  61
  irch
    OPEN/CLOSE  '..\external_files\arrays\irch.asc'  FACTOR  1
  recharge
    OPEN/CLOSE  '..\external_files\arrays\RCH\rch_061.asc'  FACTOR  1.0
END period  61

BEGIN period  62
  irch
    OPEN/CLOSE  '..\external_files\arrays\irch.asc'  FACTOR  1
  recharge
    OPEN/CLOSE  '..\external_files\arrays\RCH\rch_062.asc'  FACTOR  1.0
END period  62

BEGIN period  63
  irch
    OPEN/CLOSE  '..\external_files\arrays\irch.asc'  FACTOR  1
  recharge
    OPEN/CLOSE  '..\external_files\arrays\RCH\rch_063.asc'  FACTOR  1.0
END period  63

BEGIN period  64
  irch
    OPEN/CLOSE  '..\external_files\arrays\irch.asc'  FACTOR  1
  recharge
    OPEN/CLOSE  '..\external_files\arrays\RCH\rch_064.asc'  FACTOR  1.0
END period  64

BEGIN period  65
  irch
    OPEN/CLOSE  '..\external_files\arrays\irch.asc'  FACTOR  1
  recharge
    OPEN/CLOSE  '..\external_files\arrays\RCH\rch_065.asc'  FACTOR  1.0
END period  65

BEGIN period  66
  irch
    OPEN/CLOSE  '..\external_files\arrays\irch.asc'  FACTOR  1
  recharge
    OPEN/CLOSE  '..\external_files\arrays\RCH\rch_066.asc'  FACTOR  1.0
END period  66

BEGIN period  67
  irch
    OPEN/CLOSE  '..\external_files\arrays\irch.asc'  FACTOR  1
  recharge
    OPEN/CLOSE  '..\external_files\arrays\RCH\rch_067.asc'  FACTOR  1.0
END period  67

BEGIN period  68
  irch
    OPEN/CLOSE  '..\external_files\arrays\irch.asc'  FACTOR  1
  recharge
    OPEN/CLOSE  '..\external_files\arrays\RCH\rch_068.asc'  FACTOR  1.0
END period  68

BEGIN period  69
  irch
    OPEN/CLOSE  '..\external_files\arrays\irch.asc'  FACTOR  1
  recharge
    OPEN/CLOSE  '..\external_files\arrays\RCH\rch_069.asc'  FACTOR  1.0
END period  69

BEGIN period  70
  irch
    OPEN/CLOSE  '..\external_files\arrays\irch.asc'  FACTOR  1
  recharge
    OPEN/CLOSE  '..\external_files\arrays\RCH\rch_070.asc'  FACTOR  1.0
END period  70

BEGIN period  71
  irch
    OPEN/CLOSE  '..\external_files\arrays\irch.asc'  FACTOR  1
  recharge
    OPEN/CLOSE  '..\external_files\arrays\RCH\rch_071.asc'  FACTOR  1.0
END period  71

BEGIN period  72
  irch
    OPEN/CLOSE  '..\external_files\arrays\irch.asc'  FACTOR  1
  recharge
    OPEN/CLOSE  '..\external_files\arrays\RCH\rch_072.asc'  FACTOR  1.0
END period  72

BEGIN period  73
  irch
    OPEN/CLOSE  '..\external_files\arrays\irch.asc'  FACTOR  1
  recharge
    OPEN/CLOSE  '..\external_files\arrays\RCH\rch_073.asc'  FACTOR  1.0
END period  73

BEGIN period  74
  irch
    OPEN/CLOSE  '..\external_files\arrays\irch.asc'  FACTOR  1
  recharge
    OPEN/CLOSE  '..\external_files\arrays\RCH\rch_074.asc'  FACTOR  1.0
END period  74

BEGIN period  75
  irch
    OPEN/CLOSE  '..\external_files\arrays\irch.asc'  FACTOR  1
  recharge
    OPEN/CLOSE  '..\external_files\arrays\RCH\rch_075.asc'  FACTOR  1.0
END period  75

BEGIN period  76
  irch
    OPEN/CLOSE  '..\external_files\arrays\irch.asc'  FACTOR  1
  recharge
    OPEN/CLOSE  '..\external_files\arrays\RCH\rch_076.asc'  FACTOR  1.0
END period  76

BEGIN period  77
  irch
    OPEN/CLOSE  '..\external_files\arrays\irch.asc'  FACTOR  1
  recharge
    OPEN/CLOSE  '..\external_files\arrays\RCH\rch_077.asc'  FACTOR  1.0
END period  77

BEGIN period  78
  irch
    OPEN/CLOSE  '..\external_files\arrays\irch.asc'  FACTOR  1
  recharge
    OPEN/CLOSE  '..\external_files\arrays\RCH\rch_078.asc'  FACTOR  1.0
END period  78

BEGIN period  79
  irch
    OPEN/CLOSE  '..\external_files\arrays\irch.asc'  FACTOR  1
  recharge
    OPEN/CLOSE  '..\external_files\arrays\RCH\rch_079.asc'  FACTOR  1.0
END period  79

BEGIN period  80
  irch
    OPEN/CLOSE  '..\external_files\arrays\irch.asc'  FACTOR  1
  recharge
    OPEN/CLOSE  '..\external_files\arrays\RCH\rch_080.asc'  FACTOR  1.0
END period  80

BEGIN period  81
  irch
    OPEN/CLOSE  '..\external_files\arrays\irch.asc'  FACTOR  1
  recharge
    OPEN/CLOSE  '..\external_files\arrays\RCH\rch_081.asc'  FACTOR  1.0
END period  81

BEGIN period  82
  irch
    OPEN/CLOSE  '..\external_files\arrays\irch.asc'  FACTOR  1
  recharge
    OPEN/CLOSE  '..\external_files\arrays\RCH\rch_082.asc'  FACTOR  1.0
END period  82

BEGIN period  83
  irch
    OPEN/CLOSE  '..\external_files\arrays\irch.asc'  FACTOR  1
  recharge
    OPEN/CLOSE  '..\external_files\arrays\RCH\rch_083.asc'  FACTOR  1.0
END period  83

BEGIN period  84
  irch
    OPEN/CLOSE  '..\external_files\arrays\irch.asc'  FACTOR  1
  recharge
    OPEN/CLOSE  '..\external_files\arrays\RCH\rch_084.asc'  FACTOR  1.0
END period  84

BEGIN period  85
  irch
    OPEN/CLOSE  '..\external_files\arrays\irch.asc'  FACTOR  1
  recharge
    OPEN/CLOSE  '..\external_files\arrays\RCH\rch_085.asc'  FACTOR  1.0
END period  85

BEGIN period  86
  irch
    OPEN/CLOSE  '..\external_files\arrays\irch.asc'  FACTOR  1
  recharge
    OPEN/CLOSE  '..\external_files\arrays\RCH\rch_086.asc'  FACTOR  1.0
END period  86

BEGIN period  87
  irch
    OPEN/CLOSE  '..\external_files\arrays\irch.asc'  FACTOR  1
  recharge
    OPEN/CLOSE  '..\external_files\arrays\RCH\rch_087.asc'  FACTOR  1.0
END period  87

BEGIN period  88
  irch
    OPEN/CLOSE  '..\external_files\arrays\irch.asc'  FACTOR  1
  recharge
    OPEN/CLOSE  '..\external_files\arrays\RCH\rch_088.asc'  FACTOR  1.0
END period  88

BEGIN period  89
  irch
    OPEN/CLOSE  '..\external_files\arrays\irch.asc'  FACTOR  1
  recharge
    OPEN/CLOSE  '..\external_files\arrays\RCH\rch_089.asc'  FACTOR  1.0
END period  89

BEGIN period  90
  irch
    OPEN/CLOSE  '..\external_files\arrays\irch.asc'  FACTOR  1
  recharge
    OPEN/CLOSE  '..\external_files\arrays\RCH\rch_090.asc'  FACTOR  1.0
END period  90

BEGIN period  91
  irch
    OPEN/CLOSE  '..\external_files\arrays\irch.asc'  FACTOR  1
  recharge
    OPEN/CLOSE  '..\external_files\arrays\RCH\rch_091.asc'  FACTOR  1.0
END period  91

BEGIN period  92
  irch
    OPEN/CLOSE  '..\external_files\arrays\irch.asc'  FACTOR  1
  recharge
    OPEN/CLOSE  '..\external_files\arrays\RCH\rch_092.asc'  FACTOR  1.0
END period  92

BEGIN period  93
  irch
    OPEN/CLOSE  '..\external_files\arrays\irch.asc'  FACTOR  1
  recharge
    OPEN/CLOSE  '..\external_files\arrays\RCH\rch_093.asc'  FACTOR  1.0
END period  93

BEGIN period  94
  irch
    OPEN/CLOSE  '..\external_files\arrays\irch.asc'  FACTOR  1
  recharge
    OPEN/CLOSE  '..\external_files\arrays\RCH\rch_094.asc'  FACTOR  1.0
END period  94

BEGIN period  95
  irch
    OPEN/CLOSE  '..\external_files\arrays\irch.asc'  FACTOR  1
  recharge
    OPEN/CLOSE  '..\external_files\arrays\RCH\rch_095.asc'  FACTOR  1.0
END period  95

BEGIN period  96
  irch
    OPEN/CLOSE  '..\external_files\arrays\irch.asc'  FACTOR  1
  recharge
    OPEN/CLOSE  '..\external_files\arrays\RCH\rch_096.asc'  FACTOR  1.0
END period  96

BEGIN period  97
  irch
    OPEN/CLOSE  '..\external_files\arrays\irch.asc'  FACTOR  1
  recharge
    OPEN/CLOSE  '..\external_files\arrays\RCH\rch_097.asc'  FACTOR  1.0
END period  97

BEGIN period  98
  irch
    OPEN/CLOSE  '..\external_files\arrays\irch.asc'  FACTOR  1
  recharge
    OPEN/CLOSE  '..\external_files\arrays\RCH\rch_098.asc'  FACTOR  1.0
END period  98

BEGIN period  99
  irch
    OPEN/CLOSE  '..\external_files\arrays\irch.asc'  FACTOR  1
  recharge
    OPEN/CLOSE  '..\external_files\arrays\RCH\rch_099.asc'  FACTOR  1.0
END period  99

BEGIN period  100
  irch
    OPEN/CLOSE  '..\external_files\arrays\irch.asc'  FACTOR  1
  recharge
    OPEN/CLOSE  '..\external_files\arrays\RCH\rch_100.asc'  FACTOR  1.0
END period  100

BEGIN period  101
  irch
    OPEN/CLOSE  '..\external_files\arrays\irch.asc'  FACTOR  1
  recharge
    OPEN/CLOSE  '..\external_files\arrays\RCH\rch_101.asc'  FACTOR  1.0
END period  101

BEGIN period  102
  irch
    OPEN/CLOSE  '..\external_files\arrays\irch.asc'  FACTOR  1
  recharge
    OPEN/CLOSE  '..\external_files\arrays\RCH\rch_102.asc'  FACTOR  1.0
END period  102

BEGIN period  103
  irch
    OPEN/CLOSE  '..\external_files\arrays\irch.asc'  FACTOR  1
  recharge
    OPEN/CLOSE  '..\external_files\arrays\RCH\rch_103.asc'  FACTOR  1.0
END period  103

BEGIN period  104
  irch
    OPEN/CLOSE  '..\external_files\arrays\irch.asc'  FACTOR  1
  recharge
    OPEN/CLOSE  '..\external_files\arrays\RCH\rch_104.asc'  FACTOR  1.0
END period  104

BEGIN period  105
  irch
    OPEN/CLOSE  '..\external_files\arrays\irch.asc'  FACTOR  1
  recharge
    OPEN/CLOSE  '..\external_files\arrays\RCH\rch_105.asc'  FACTOR  1.0
END period  105

BEGIN period  106
  irch
    OPEN/CLOSE  '..\external_files\arrays\irch.asc'  FACTOR  1
  recharge
    OPEN/CLOSE  '..\external_files\arrays\RCH\rch_106.asc'  FACTOR  1.0
END period  106

BEGIN period  107
  irch
    OPEN/CLOSE  '..\external_files\arrays\irch.asc'  FACTOR  1
  recharge
    OPEN/CLOSE  '..\external_files\arrays\RCH\rch_107.asc'  FACTOR  1.0
END period  107

BEGIN period  108
  irch
    OPEN/CLOSE  '..\external_files\arrays\irch.asc'  FACTOR  1
  recharge
    OPEN/CLOSE  '..\external_files\arrays\RCH\rch_108.asc'  FACTOR  1.0
END period  108

BEGIN period  109
  irch
    OPEN/CLOSE  '..\external_files\arrays\irch.asc'  FACTOR  1
  recharge
    OPEN/CLOSE  '..\external_files\arrays\RCH\rch_109.asc'  FACTOR  1.0
END period  109

BEGIN period  110
  irch
    OPEN/CLOSE  '..\external_files\arrays\irch.asc'  FACTOR  1
  recharge
    OPEN/CLOSE  '..\external_files\arrays\RCH\rch_110.asc'  FACTOR  1.0
END period  110

BEGIN period  111
  irch
    OPEN/CLOSE  '..\external_files\arrays\irch.asc'  FACTOR  1
  recharge
    OPEN/CLOSE  '..\external_files\arrays\RCH\rch_111.asc'  FACTOR  1.0
END period  111

BEGIN period  112
  irch
    OPEN/CLOSE  '..\external_files\arrays\irch.asc'  FACTOR  1
  recharge
    OPEN/CLOSE  '..\external_files\arrays\RCH\rch_112.asc'  FACTOR  1.0
END period  112

BEGIN period  113
  irch
    OPEN/CLOSE  '..\external_files\arrays\irch.asc'  FACTOR  1
  recharge
    OPEN/CLOSE  '..\external_files\arrays\RCH\rch_113.asc'  FACTOR  1.0
END period  113

BEGIN period  114
  irch
    OPEN/CLOSE  '..\external_files\arrays\irch.asc'  FACTOR  1
  recharge
    OPEN/CLOSE  '..\external_files\arrays\RCH\rch_114.asc'  FACTOR  1.0
END period  114

BEGIN period  115
  irch
    OPEN/CLOSE  '..\external_files\arrays\irch.asc'  FACTOR  1
  recharge
    OPEN/CLOSE  '..\external_files\arrays\RCH\rch_115.asc'  FACTOR  1.0
END period  115

BEGIN period  116
  irch
    OPEN/CLOSE  '..\external_files\arrays\irch.asc'  FACTOR  1
  recharge
    OPEN/CLOSE  '..\external_files\arrays\RCH\rch_116.asc'  FACTOR  1.0
END period  116

BEGIN period  117
  irch
    OPEN/CLOSE  '..\external_files\arrays\irch.asc'  FACTOR  1
  recharge
    OPEN/CLOSE  '..\external_files\arrays\RCH\rch_117.asc'  FACTOR  1.0
END period  117

BEGIN period  118
  irch
    OPEN/CLOSE  '..\external_files\arrays\irch.asc'  FACTOR  1
  recharge
    OPEN/CLOSE  '..\external_files\arrays\RCH\rch_118.asc'  FACTOR  1.0
END period  118

BEGIN period  119
  irch
    OPEN/CLOSE  '..\external_files\arrays\irch.asc'  FACTOR  1
  recharge
    OPEN/CLOSE  '..\external_files\arrays\RCH\rch_119.asc'  FACTOR  1.0
END period  119

BEGIN period  120
  irch
    OPEN/CLOSE  '..\external_files\arrays\irch.asc'  FACTOR  1
  recharge
    OPEN/CLOSE  '..\external_files\arrays\RCH\rch_120.asc'  FACTOR  1.0
END period  120

BEGIN period  121
  irch
    OPEN/CLOSE  '..\external_files\arrays\irch.asc'  FACTOR  1
  recharge
    OPEN/CLOSE  '..\external_files\arrays\RCH\rch_121.asc'  FACTOR  1.0
END period  121

BEGIN period  122
  irch
    OPEN/CLOSE  '..\external_files\arrays\irch.asc'  FACTOR  1
  recharge
    OPEN/CLOSE  '..\external_files\arrays\RCH\rch_122.asc'  FACTOR  1.0
END period  122

BEGIN period  123
  irch
    OPEN/CLOSE  '..\external_files\arrays\irch.asc'  FACTOR  1
  recharge
    OPEN/CLOSE  '..\external_files\arrays\RCH\rch_123.asc'  FACTOR  1.0
END period  123

BEGIN period  124
  irch
    OPEN/CLOSE  '..\external_files\arrays\irch.asc'  FACTOR  1
  recharge
    OPEN/CLOSE  '..\external_files\arrays\RCH\rch_124.asc'  FACTOR  1.0
END period  124

BEGIN period  125
  irch
    OPEN/CLOSE  '..\external_files\arrays\irch.asc'  FACTOR  1
  recharge
    OPEN/CLOSE  '..\external_files\arrays\RCH\rch_125.asc'  FACTOR  1.0
END period  125

BEGIN period  126
  irch
    OPEN/CLOSE  '..\external_files\arrays\irch.asc'  FACTOR  1
  recharge
    OPEN/CLOSE  '..\external_files\arrays\RCH\rch_126.asc'  FACTOR  1.0
END period  126

BEGIN period  127
  irch
    OPEN/CLOSE  '..\external_files\arrays\irch.asc'  FACTOR  1
  recharge
    OPEN/CLOSE  '..\external_files\arrays\RCH\rch_127.asc'  FACTOR  1.0
END period  127

BEGIN period  128
  irch
    OPEN/CLOSE  '..\external_files\arrays\irch.asc'  FACTOR  1
  recharge
    OPEN/CLOSE  '..\external_files\arrays\RCH\rch_128.asc'  FACTOR  1.0
END period  128

BEGIN period  129
  irch
    OPEN/CLOSE  '..\external_files\arrays\irch.asc'  FACTOR  1
  recharge
    OPEN/CLOSE  '..\external_files\arrays\RCH\rch_129.asc'  FACTOR  1.0
END period  129

BEGIN period  130
  irch
    OPEN/CLOSE  '..\external_files\arrays\irch.asc'  FACTOR  1
  recharge
    OPEN/CLOSE  '..\external_files\arrays\RCH\rch_130.asc'  FACTOR  1.0
END period  130

BEGIN period  131
  irch
    OPEN/CLOSE  '..\external_files\arrays\irch.asc'  FACTOR  1
  recharge
    OPEN/CLOSE  '..\external_files\arrays\RCH\rch_131.asc'  FACTOR  1.0
END period  131

BEGIN period  132
  irch
    OPEN/CLOSE  '..\external_files\arrays\irch.asc'  FACTOR  1
  recharge
    OPEN/CLOSE  '..\external_files\arrays\RCH\rch_132.asc'  FACTOR  1.0
END period  132

BEGIN period  133
  irch
    OPEN/CLOSE  '..\external_files\arrays\irch.asc'  FACTOR  1
  recharge
    OPEN/CLOSE  '..\external_files\arrays\RCH\rch_133.asc'  FACTOR  1.0
END period  133

BEGIN period  134
  irch
    OPEN/CLOSE  '..\external_files\arrays\irch.asc'  FACTOR  1
  recharge
    OPEN/CLOSE  '..\external_files\arrays\RCH\rch_134.asc'  FACTOR  1.0
END period  134

BEGIN period  135
  irch
    OPEN/CLOSE  '..\external_files\arrays\irch.asc'  FACTOR  1
  recharge
    OPEN/CLOSE  '..\external_files\arrays\RCH\rch_135.asc'  FACTOR  1.0
END period  135

BEGIN period  136
  irch
    OPEN/CLOSE  '..\external_files\arrays\irch.asc'  FACTOR  1
  recharge
    OPEN/CLOSE  '..\external_files\arrays\RCH\rch_136.asc'  FACTOR  1.0
END period  136

BEGIN period  137
  irch
    OPEN/CLOSE  '..\external_files\arrays\irch.asc'  FACTOR  1
  recharge
    OPEN/CLOSE  '..\external_files\arrays\RCH\rch_137.asc'  FACTOR  1.0
END period  137

BEGIN period  138
  irch
    OPEN/CLOSE  '..\external_files\arrays\irch.asc'  FACTOR  1
  recharge
    OPEN/CLOSE  '..\external_files\arrays\RCH\rch_138.asc'  FACTOR  1.0
END period  138

BEGIN period  139
  irch
    OPEN/CLOSE  '..\external_files\arrays\irch.asc'  FACTOR  1
  recharge
    OPEN/CLOSE  '..\external_files\arrays\RCH\rch_139.asc'  FACTOR  1.0
END period  139

BEGIN period  140
  irch
    OPEN/CLOSE  '..\external_files\arrays\irch.asc'  FACTOR  1
  recharge
    OPEN/CLOSE  '..\external_files\arrays\RCH\rch_140.asc'  FACTOR  1.0
END period  140

BEGIN period  141
  irch
    OPEN/CLOSE  '..\external_files\arrays\irch.asc'  FACTOR  1
  recharge
    OPEN/CLOSE  '..\external_files\arrays\RCH\rch_141.asc'  FACTOR  1.0
END period  141

BEGIN period  142
  irch
    OPEN/CLOSE  '..\external_files\arrays\irch.asc'  FACTOR  1
  recharge
    OPEN/CLOSE  '..\external_files\arrays\RCH\rch_142.asc'  FACTOR  1.0
END period  142

BEGIN period  143
  irch
    OPEN/CLOSE  '..\external_files\arrays\irch.asc'  FACTOR  1
  recharge
    OPEN/CLOSE  '..\external_files\arrays\RCH\rch_143.asc'  FACTOR  1.0
END period  143

BEGIN period  144
  irch
    OPEN/CLOSE  '..\external_files\arrays\irch.asc'  FACTOR  1
  recharge
    OPEN/CLOSE  '..\external_files\arrays\RCH\rch_144.asc'  FACTOR  1.0
END period  144

BEGIN period  145
  irch
    OPEN/CLOSE  '..\external_files\arrays\irch.asc'  FACTOR  1
  recharge
    OPEN/CLOSE  '..\external_files\arrays\RCH\rch_145.asc'  FACTOR  1.0
END period  145

BEGIN period  146
  irch
    OPEN/CLOSE  '..\external_files\arrays\irch.asc'  FACTOR  1
  recharge
    OPEN/CLOSE  '..\external_files\arrays\RCH\rch_146.asc'  FACTOR  1.0
END period  146

BEGIN period  147
  irch
    OPEN/CLOSE  '..\external_files\arrays\irch.asc'  FACTOR  1
  recharge
    OPEN/CLOSE  '..\external_files\arrays\RCH\rch_147.asc'  FACTOR  1.0
END period  147

BEGIN period  148
  irch
    OPEN/CLOSE  '..\external_files\arrays\irch.asc'  FACTOR  1
  recharge
    OPEN/CLOSE  '..\external_files\arrays\RCH\rch_148.asc'  FACTOR  1.0
END period  148

BEGIN period  149
  irch
    OPEN/CLOSE  '..\external_files\arrays\irch.asc'  FACTOR  1
  recharge
    OPEN/CLOSE  '..\external_files\arrays\RCH\rch_149.asc'  FACTOR  1.0
END period  149

BEGIN period  150
  irch
    OPEN/CLOSE  '..\external_files\arrays\irch.asc'  FACTOR  1
  recharge
    OPEN/CLOSE  '..\external_files\arrays\RCH\rch_150.asc'  FACTOR  1.0
END period  150

BEGIN period  151
  irch
    OPEN/CLOSE  '..\external_files\arrays\irch.asc'  FACTOR  1
  recharge
    OPEN/CLOSE  '..\external_files\arrays\RCH\rch_151.asc'  FACTOR  1.0
END period  151

BEGIN period  152
  irch
    OPEN/CLOSE  '..\external_files\arrays\irch.asc'  FACTOR  1
  recharge
    OPEN/CLOSE  '..\external_files\arrays\RCH\rch_152.asc'  FACTOR  1.0
END period  152

BEGIN period  153
  irch
    OPEN/CLOSE  '..\external_files\arrays\irch.asc'  FACTOR  1
  recharge
    OPEN/CLOSE  '..\external_files\arrays\RCH\rch_153.asc'  FACTOR  1.0
END period  153

BEGIN period  154
  irch
    OPEN/CLOSE  '..\external_files\arrays\irch.asc'  FACTOR  1
  recharge
    OPEN/CLOSE  '..\external_files\arrays\RCH\rch_154.asc'  FACTOR  1.0
END period  154

BEGIN period  155
  irch
    OPEN/CLOSE  '..\external_files\arrays\irch.asc'  FACTOR  1
  recharge
    OPEN/CLOSE  '..\external_files\arrays\RCH\rch_155.asc'  FACTOR  1.0
END period  155

BEGIN period  156
  irch
    OPEN/CLOSE  '..\external_files\arrays\irch.asc'  FACTOR  1
  recharge
    OPEN/CLOSE  '..\external_files\arrays\RCH\rch_156.asc'  FACTOR  1.0
END period  156

BEGIN period  157
  irch
    OPEN/CLOSE  '..\external_files\arrays\irch.asc'  FACTOR  1
  recharge
    OPEN/CLOSE  '..\external_files\arrays\RCH\rch_157.asc'  FACTOR  1.0
END period  157

BEGIN period  158
  irch
    OPEN/CLOSE  '..\external_files\arrays\irch.asc'  FACTOR  1
  recharge
    OPEN/CLOSE  '..\external_files\arrays\RCH\rch_158.asc'  FACTOR  1.0
END period  158

BEGIN period  159
  irch
    OPEN/CLOSE  '..\external_files\arrays\irch.asc'  FACTOR  1
  recharge
    OPEN/CLOSE  '..\external_files\arrays\RCH\rch_159.asc'  FACTOR  1.0
END period  159

BEGIN period  160
  irch
    OPEN/CLOSE  '..\external_files\arrays\irch.asc'  FACTOR  1
  recharge
    OPEN/CLOSE  '..\external_files\arrays\RCH\rch_160.asc'  FACTOR  1.0
END period  160
