BEGIN options
  DIGITS  5
END options

BEGIN continuous  FILEOUT  ..\output\head_obs.csv
  1243B  HEAD  2 89 54
  1251T  HEAD  4 78 56
  1290P  HEAD  6 76 74
  1308T5  HEAD  5 118 79
  1324H  HEAD  4 91 93
  1324H  HEAD  5 91 93
  1333C  HEAD  8 84 94
  1362P4  HEAD  4 84 108
  1380_5  HEAD  6 72 116
  1434J5  HEAD  7 94 139
  1434J5  HEAD  5 94 139
  1504C4  HEAD  4 96 171
  1504C4  HEAD  5 96 171
  1537A2  HEAD  1 114 186
  1554F  HEAD  2 99 194
  1601PT  HEAD  2 82 217
  1615P  HEAD  2 101 223
  1615P  HEAD  4 101 223
  1654H  HEAD  4 97 242
  2535J6  HEAD  2 45 52
  2539L  HEAD  4 68 49
  2578X  HEAD  6 62 67
  2626P  HEAD  2 55 91
  2626P  HEAD  4 55 91
  2626P  HEAD  5 55 91
  2626P  HEAD  6 55 91
  2642D  HEAD  2 29 99
  2646K  HEAD  4 55 50
  2671A  HEAD  2 23 113
  2747A  HEAD  7 54 143
  2765_1  HEAD  2 46 151
  2778_7  HEAD  7 61 160
  2778_9  HEAD  9 61 160
  2778_5  HEAD  5 61 160
  310C_5  HEAD  5 179 134
  310C_5  HEAD  4 179 134
  441_4  HEAD  2 191 189
  460K_5  HEAD  5 184 197
  500D_8  HEAD  8 184 216
  702E  HEAD  2 139 81
  702M  HEAD  2 140 79
  713D  HEAD  4 145 82
  713D  HEAD  5 145 82
  715D  HEAD  6 154 83
  725J  HEAD  4 156 88
  735  HEAD  4 156 92
  737H  HEAD  2 168 95
  746_5  HEAD  5 161 100
  758F  HEAD  5 170 105
  760C_5  HEAD  5 129 105
  760C_5  HEAD  6 129 105
  769  HEAD  5 176 109
  794B_6  HEAD  6 151 122
  851F_5  HEAD  5 132 151
  868H_7  HEAD  7 174 150
  888F_7  HEAD  7 173 164
  906D_7  HEAD  7 162 172
  906D_7  HEAD  8 162 172
  913E_6  HEAD  7 144 177
  975A_4  HEAD  4 159 206
  981C_3  HEAD  3 134 211
  A105_4  HEAD  3 169 277
  AMD8_MP1  HEAD  1 167 266
  AMD8_MP2  HEAD  1 167 266
  AMD8_MP3  HEAD  2 167 266
  AMD8_MP4  HEAD  3 167 266
  AMD8_MP5  HEAD  4 167 266
  AMD8_MP6  HEAD  4 167 266
  AMD8_MP7  HEAD  4 167 266
  AMD8_MP8  HEAD  4 167 266
  AMD8_MP9  HEAD  5 167 266
  AMD8_MPA  HEAD  5 167 266
  AMD8_MPB  HEAD  5 167 266
  AMD8_MPC  HEAD  6 167 266
  AMD8_MPD  HEAD  6 167 266
  AMD8_MPE  HEAD  7 167 266
  AMD8_MPF  HEAD  7 167 266
  BEL1_1  HEAD  11 82 175
  BEL1_2  HEAD  9 82 175
  BEL1_3  HEAD  7 82 175
  BEL1_4  HEAD  6 82 175
  BEL1_5  HEAD  4 82 175
  BEL1_6  HEAD  3 82 175
  BEL1_8  HEAD  2 82 175
  BG1_1  HEAD  9 94 193
  BG1_2  HEAD  7 94 193
  BG1_3  HEAD  6 94 193
  BG1_4  HEAD  5 94 193
  BG1_5  HEAD  4 94 193
  BG1_6  HEAD  3 94 193
  BG1_7  HEAD  2 94 193
  BPCHMN  HEAD  5 154 246
  BP-CIVC  HEAD  4 147 263
  BPM1_MP1  HEAD  1 152 249
  BPM1_MP2  HEAD  2 152 249
  BPM1_MP3  HEAD  3 152 249
  BPM1_MP4  HEAD  4 152 249
  BPM1_MP5  HEAD  4 152 249
  BPM1_MP6  HEAD  4 152 249
  BPM1_MP7  HEAD  4 152 249
  BPM1_MP8  HEAD  5 152 249
  BPM1_MP9  HEAD  5 152 249
  BPM1_MPA  HEAD  6 152 249
  BPM1_MPB  HEAD  6 152 249
  BPM1_MPC  HEAD  7 152 249
  BPM1_MPD  HEAD  7 152 249
  BPM1_MPE  HEAD  8 152 249
  BPM2_MP1  HEAD  1 171 254
  BPM2_MP2  HEAD  2 171 254
  BPM2_MP3  HEAD  3 171 254
  BPM2_MP4  HEAD  3 171 254
  BPM2_MP5  HEAD  4 171 254
  BPM2_MP6  HEAD  4 171 254
  BPM2_MP7  HEAD  4 171 254
  BPM2_MP8  HEAD  5 171 254
  BPM2_MP9  HEAD  5 171 254
  BPM2_MPA  HEAD  5 171 254
  BPM2_MPB  HEAD  5 171 254
  BPM2_MPC  HEAD  6 171 254
  BPM2_MPD  HEAD  6 171 254
  BPM2_MPE  HEAD  7 171 254
  BPM2_MPF  HEAD  8 171 254
  CAR1_1  HEAD  7 161 150
  CAR1_2  HEAD  7 161 150
  CAR1_3  HEAD  5 161 150
  CAR1_4  HEAD  4 161 150
  CAR2_1  HEAD  9 169 132
  CAR2_2  HEAD  7 169 132
  CAR2_3  HEAD  7 169 132
  CAR2_4  HEAD  6 169 132
  CAR2_5  HEAD  4 169 132
  CAR3_1  HEAD  10 150 139
  CAR3_2  HEAD  8 150 139
  CAR3_3  HEAD  8 150 139
  CAR3_4  HEAD  7 150 139
  CAR3_5  HEAD  7 150 139
  CAR3_6  HEAD  5 150 139
  CB1_MP1  HEAD  1 160 283
  CB1_MP2  HEAD  1 160 283
  CB1_MP3  HEAD  3 160 283
  CB1_MP4  HEAD  4 160 283
  CB1_MP5  HEAD  5 160 283
  CB1_MP6  HEAD  6 160 283
  CB1_MP7  HEAD  7 160 283
  CB1_MP8  HEAD  8 160 283
  CB1_MP9  HEAD  9 160 283
  CER1_1  HEAD  5 156 234
  CER1_3  HEAD  4 156 234
  CER1_4  HEAD  2 156 234
  CER1_5  HEAD  1 156 234
  CER2_1  HEAD  5 139 213
  CER2_2  HEAD  4 139 213
  CER2_4  HEAD  3 139 213
  CER2_5  HEAD  2 139 213
  CER2_6  HEAD  1 139 213
  CMP1_1  HEAD  8 130 173
  CMP1_2  HEAD  7 130 173
  CMP1_3  HEAD  5 130 173
  CMP1_4  HEAD  4 130 173
  CMP1_5  HEAD  3 130 173
  CMP2_1  HEAD  10 130 153
  CMP2_2  HEAD  8 130 153
  CMP2_4  HEAD  5 130 153
  CMP2_5  HEAD  4 130 153
  CMP2_6  HEAD  3 130 153
  COM1_1  HEAD  12 65 184
  COM1_2  HEAD  10 65 184
  COM1_3  HEAD  8 65 184
  COM1_4  HEAD  7 65 184
  COM1_5  HEAD  4 65 184
  COM1_6  HEAD  2 65 184
  DWY1_1  HEAD  6 115 198
  DWY1_2  HEAD  5 115 198
  DWY1_3  HEAD  4 115 198
  DWY1_4  HEAD  3 115 198
  DWY1_5  HEAD  2 115 198
  DWY1_6  HEAD  1 115 198
  FM-6  HEAD  10 129 296
  GAR1_1  HEAD  10 121 127
  GAR1_2  HEAD  7 121 127
  GAR1_3  HEAD  7 121 127
  GAR1_4  HEAD  4 121 127
  GAR2_1  HEAD  10 139 123
  GAR2_2  HEAD  7 139 123
  GAR2_3  HEAD  7 139 123
  GAR2_4  HEAD  5 139 123
  GAR2_5  HEAD  4 139 123
  GG-22  HEAD  4 189 256
  GGM2_MP1  HEAD  1 196 256
  GGM2_MP2  HEAD  2 196 256
  GGM2_MP3  HEAD  3 196 256
  GGM2_MP4  HEAD  4 196 256
  GGM2_MP5  HEAD  4 196 256
  GGM2_MP6  HEAD  4 196 256
  GGM2_MP7  HEAD  4 196 256
  GGM2_MP8  HEAD  5 196 256
  GGM2_MP9  HEAD  6 196 256
  GGM2_MPA  HEAD  7 196 256
  GGM2_MPB  HEAD  7 196 256
  GGM2_MPC  HEAD  8 196 256
  GGM2_MPD  HEAD  9 196 256
  GGM3_MP1  HEAD  1 184 270
  GGM3_MP2  HEAD  2 184 270
  GGM3_MP3  HEAD  3 184 270
  GGM3_MP4  HEAD  3 184 270
  GGM3_MP5  HEAD  4 184 270
  GGM3_MP6  HEAD  4 184 270
  GGM3_MP7  HEAD  4 184 270
  GGM3_MP8  HEAD  4 184 270
  GGM3_MP9  HEAD  5 184 270
  GGM3_MPA  HEAD  5 184 270
  GGM3_MPB  HEAD  5 184 270
  GGM3_MPC  HEAD  5 184 270
  GRIP1_1  HEAD  12 67 230
  GRIP1_2  HEAD  12 67 230
  GRIP1_3  HEAD  10 67 230
  GRIP1_3  HEAD  11 67 230
  GRIP1_4  HEAD  2 67 230
  HAW1_1  HEAD  9 119 93
  HAW1_2  HEAD  8 119 93
  HAW1_4  HEAD  6 119 93
  HAW1_5  HEAD  5 119 93
  HAW1_6  HEAD  4 119 93
  HP1_1  HEAD  6 78 153
  HP1_2  HEAD  5 78 153
  HP1_3  HEAD  3 78 153
  HP1_4  HEAD  2 78 153
  ING1_1  HEAD  12 89 97
  ING1_2  HEAD  10 89 97
  ING1_3  HEAD  8 89 97
  ING1_4  HEAD  5 89 97
  ING1_5  HEAD  4 89 97
  ING2_1  HEAD  10 92 113
  ING2_2  HEAD  9 92 113
  ING2_3  HEAD  5 92 113
  ING2_4  HEAD  4 92 113
  ING3_1  HEAD  12 108 103
  ING3_2  HEAD  12 108 103
  ING3_3  HEAD  11 108 103
  ING3_4  HEAD  10 108 103
  ING3_5  HEAD  7 108 103
  ING3_6  HEAD  5 108 103
  ING3_7  HEAD  4 108 103
  ING3_9  HEAD  2 108 103
  LA1_1  HEAD  8 72 140
  LA1_2  HEAD  7 72 140
  LA1_3  HEAD  6 72 140
  LA1_4  HEAD  5 72 140
  LA1_5  HEAD  3 72 140
  LA2_1  HEAD  12 61 156
  LA2_2  HEAD  7 61 156
  LA2_3  HEAD  7 61 156
  LA2_4  HEAD  5 61 156
  LA2_5  HEAD  4 61 156
  LA3_1  HEAD  9 64 121
  LA3_2  HEAD  7 64 121
  LA3_3  HEAD  5 64 121
  LA3_4  HEAD  4 64 121
  LA3_5  HEAD  3 64 121
  LA3_6  HEAD  2 64 121
  LA4_1  HEAD  10 93 133
  LA4_2  HEAD  9 93 133
  LA4_3  HEAD  7 93 133
  LA4_4  HEAD  5 93 133
  LA4_6  HEAD  4 93 133
  LA4_7  HEAD  1 93 133
  LAM1_MP1  HEAD  1 184 230
  LAM1_MP2  HEAD  4 184 230
  LAM1_MP3  HEAD  4 184 230
  LAM1_MP4  HEAD  5 184 230
  LAM1_MP5  HEAD  5 184 230
  LAM1_MP6  HEAD  5 184 230
  LAM1_MP7  HEAD  6 184 230
  LAM1_MP8  HEAD  6 184 230
  LAM1_MP9  HEAD  7 184 230
  LAM1_MPA  HEAD  7 184 230
  LAM1_MPB  HEAD  8 184 230
  LAM1_MPC  HEAD  8 184 230
  LAW1_1  HEAD  10 133 107
  LAW1_2  HEAD  9 133 107
  LAW1_3  HEAD  8 133 107
  LAW1_5  HEAD  4 133 107
  LAW1_6  HEAD  2 133 107
  LB1_1  HEAD  8 183 220
  LB1_3  HEAD  7 183 220
  LB1_4  HEAD  5 183 220
  LB1_5  HEAD  4 183 220
  LB1_6  HEAD  2 183 220
  LB2_1  HEAD  7 154 169
  LB2_2  HEAD  6 154 169
  LB2_3  HEAD  4 154 169
  LB2_4  HEAD  3 154 169
  LB2_5  HEAD  2 154 169
  LB2_6  HEAD  1 154 169
  LB3_1  HEAD  10 171 161
  LB3_2  HEAD  8 171 161
  LB3_3  HEAD  7 171 161
  LB3_4  HEAD  6 171 161
  LB3_5  HEAD  5 171 161
  LB4_1  HEAD  11 197 159
  LB4_2  HEAD  9 197 159
  LB5_1  HEAD  9 211 162
  LB5_2  HEAD  6 211 162
  LB6_1  HEAD  10 176 192
  LB6_2  HEAD  8 176 192
  LB6_4  HEAD  7 176 192
  LB6_6  HEAD  4 176 192
  LB7_1  HEAD  10 183 158
  LB7_2  HEAD  7 183 158
  LB7_4  HEAD  6 183 158
  LB8_1  HEAD  10 185 182
  LB8_2  HEAD  9 185 182
  LB8_3  HEAD  8 185 182
  LB8_4  HEAD  7 185 182
  LB8_5  HEAD  6 185 182
  LB8_6  HEAD  2 185 182
  LH-FS192  HEAD  9 113 293
  LMR1_1  HEAD  7 137 258
  LMR1_2  HEAD  6 137 258
  LMR1_3  HEAD  5 137 258
  LMR1_4  HEAD  4 137 258
  LMR1_5  HEAD  3 137 258
  LOM1_1  HEAD  10 178 116
  LOM1_2  HEAD  8 178 116
  LOM1_3  HEAD  6 178 116
  LOM1_4  HEAD  6 178 116
  LOM1_5  HEAD  5 178 116
  LOM1_6  HEAD  2 178 116
  LW1_1  HEAD  7 152 191
  LW1_2  HEAD  5 152 191
  LW1_4  HEAD  3 152 191
  LW1_5  HEAD  2 152 191
  LW1_6  HEAD  1 152 191
  LW2_1  HEAD  7 159 218
  LW2_2  HEAD  6 159 218
  LW2_3  HEAD  5 159 218
  LW2_4  HEAD  4 159 218
  LW2_5  HEAD  4 159 218
  LW2_6  HEAD  3 159 218
  LW2_7  HEAD  2 159 218
  LW2_8  HEAD  1 159 218
  LYN1_1  HEAD  10 112 165
  LYN1_2  HEAD  9 112 165
  LYN1_3  HEAD  8 112 165
  LYN1_4  HEAD  7 112 165
  LYN1_5  HEAD  6 112 165
  LYN1_6  HEAD  5 112 165
  LYN1_7  HEAD  5 112 165
  LYN1_8  HEAD  3 112 165
  LYN1_9  HEAD  1 112 165
  MHB1_2  HEAD  12 138 82
  MHB1_3  HEAD  10 138 82
  MHB1_4  HEAD  8 138 82
  MHB1_5  HEAD  6 138 82
  MHB1_6  HEAD  4 138 82
  MHB1_7  HEAD  2 138 82
  MTB1_1  HEAD  12 67 206
  MTB1_2  HEAD  11 67 206
  MTB1_3  HEAD  8 67 206
  MTB1_4  HEAD  7 67 206
  MTB1_5  HEAD  4 67 206
  MTB1_6  HEAD  2 67 206
  NOR1_1  HEAD  9 120 236
  NOR1_2  HEAD  7 120 236
  NOR1_3  HEAD  6 120 236
  NOR1_4  HEAD  4 120 236
  NOR1_5  HEAD  3 120 236
  NOR2_1  HEAD  9 111 214
  NOR2_2  HEAD  9 111 214
  NOR2_3  HEAD  7 111 214
  NOR2_4  HEAD  6 111 214
  NOR2_5  HEAD  4 111 214
  NOR2_6  HEAD  3 111 214
  NVLW-SB3  HEAD  5 213 233
  NVLW-SB6  HEAD  5 205 228
  OCWD-BSO2  HEAD  4 234 242
  P1_1  HEAD  12 71 227
  P1_2  HEAD  11 71 227
  P1_3  HEAD  10 71 227
  P1_4  HEAD  4 71 227
  P2_1  HEAD  10 88 222
  P2_2  HEAD  8 88 222
  P2_3  HEAD  7 88 222
  P2_4  HEAD  4 88 222
  P2_5  HEAD  2 88 222
  P2_6  HEAD  1 88 222
  PIRT-HB  HEAD  2 227 245
  PM1_1  HEAD  6 156 106
  PM1_2  HEAD  5 156 106
  PM1_3  HEAD  4 156 106
  PM1_4  HEAD  4 156 106
  PM3_1  HEAD  6 157 111
  PM3_2  HEAD  5 157 111
  PM3_3  HEAD  4 157 111
  PM3_4  HEAD  4 157 111
  PM4_1  HEAD  6 153 100
  PM4_2  HEAD  5 153 100
  PM4_3  HEAD  4 153 100
  PM4_4  HEAD  4 153 100
  PM5_1  HEAD  11 148 102
  PM5_2  HEAD  9 148 102
  PM5_3  HEAD  8 148 102
  PM5_4  HEAD  6 148 102
  PM5_5  HEAD  4 148 102
  PM5_6  HEAD  2 148 102
  PM6_1  HEAD  10 165 103
  PM6_2  HEAD  8 165 103
  PM6_3  HEAD  7 165 103
  PM6_4  HEAD  6 165 103
  PM6_5  HEAD  5 165 103
  PM6_6  HEAD  4 165 103
  RH1_1  HEAD  10 86 209
  RH1_2  HEAD  9 86 209
  RH1_3  HEAD  8 86 209
  RH1_4  HEAD  7 86 209
  RH1_5  HEAD  4 86 209
  RH1_6  HEAD  2 86 209
  SB1_1  HEAD  9 197 220
  SB1_2  HEAD  8 197 220
  SB1_3  HEAD  8 197 220
  SB1_4  HEAD  7 197 220
  SB1_5  HEAD  5 197 220
  SB1_6  HEAD  2 197 220
  SB1_7  HEAD  1 197 220
  SB-LEI  HEAD  5 197 224
  SBM1_MP1  HEAD  1 205 241
  SBM1_MP2  HEAD  4 205 241
  SBM1_MP3  HEAD  4 205 241
  SBM1_MP4  HEAD  5 205 241
  SBM1_MP5  HEAD  5 205 241
  SBM1_MP6  HEAD  6 205 241
  SBM1_MP7  HEAD  7 205 241
  SBM1_MP8  HEAD  8 205 241
  SCWC-LAC3  HEAD  4 180 230
  SCWC-SBCH  HEAD  3 191 264
  SCWC-SBCH  HEAD  4 191 264
  SGA1_1  HEAD  6 102 180
  SGA1_3  HEAD  5 102 180
  SGA1_4  HEAD  4 102 180
  SGA1_5  HEAD  1 102 180
  SGA2_1  HEAD  5 96 155
  SGA2_2  HEAD  5 96 155
  SGA2_3  HEAD  4 96 155
  SGA2_4  HEAD  3 96 155
  SGA2_5  HEAD  1 96 155
  SGA2_6  HEAD  1 96 155
  W-7042  HEAD  9 111 285
  WCR1_1  HEAD  8 94 71
  WCR1_2  HEAD  6 94 71
  WCR1_3  HEAD  6 94 71
  WCR1_5  HEAD  5 94 71
  WHT1_1  HEAD  12 107 262
  WHT1_2  HEAD  12 107 262
  WHT1_3  HEAD  11 107 262
  WHT1_5  HEAD  4 107 262
  WHT2_1  HEAD  11 84 234
  WHT2_2  HEAD  10 84 234
  WHT2_3  HEAD  7 84 234
  WHT2_4  HEAD  5 84 234
  WHT2_5  HEAD  4 84 234
  WHT2_6  HEAD  2 84 234
  WIL1_1  HEAD  8 181 151
  WIL1_3  HEAD  8 181 151
  WIL1_4  HEAD  4 181 151
  WIL1_5  HEAD  2 181 151
  WIL2_1  HEAD  11 191 138
  WIL2_2  HEAD  10 191 138
  WIL2_3  HEAD  9 191 138
  WIL2_4  HEAD  8 191 138
  WIL2_5  HEAD  2 191 138
  WLB1_1  HEAD  8 113 144
  WLB1_2  HEAD  6 113 144
  WLB1_3  HEAD  5 113 144
  WLB1_4  HEAD  4 113 144
  WM-RES2  HEAD  4 203 250
  WM-RES2  HEAD  5 203 250
  WN2_6  HEAD  11 67 235
  WN2_7  HEAD  4 67 235
  WN2_8  HEAD  2 67 235
END continuous  FILEOUT  ..\output\head_obs.csv

