BEGIN options
END options

BEGIN continuous  FILEOUT  ..\output\maw_flow_obs.csv
  w902305  rate  1
  w203287  rate  2
  w203285  rate  3
  w-4256  rate  4
  w-4794  rate  5
  w-4241  rate  6
  w-17141  rate  7
  airp-hb  rate  8
  w-3060  rate  9
  w-11879  rate  10
  gswa-hb  rate  11
  w-3063  rate  12
  w-16779  rate  13
  pirt-hb  rate  14
  gswu-hb  rate  15
  w-11867  rate  16
  hb-2  rate  17
  hb-11  rate  18
  hb-1  rate  19
  w-16785  rate  20
  boe-ew101  rate  21
  nvlw-sb3  rate  22
  hb-13  rate  23
  hb-7  rate  24
  hb-4  rate  25
  tmix-wm  rate  26
  hell-sb2  rate  27
  w-16935  rate  28
  hb-12  rate  29
  hbhs-wm  rate  30
  w-16929  rate  31
  wm-9  rate  32
  wm-8  rate  33
  w-16951  rate  34
  w-2397  rate  35
  nvlw-sb6  rate  36
  sb-7  rate  37
  514k  rate  38
  514i  rate  39
  514j  rate  40
  503bm  rate  41
  503bn  rate  42
  503bl  rate  43
  w-14350  rate  44
  wm-res2  rate  45
  503aa  rate  46
  503az  rate  47
  503ba  rate  48
  503bb  rate  49
  wm-125  rate  50
  ruiz-6f1  rate  51
  503av  rate  52
  503aw  rate  53
  503ax  rate  54
  503ay  rate  55
  503z  rate  56
  wm-75  rate  57
  nvlw-sb  rate  58
  503as  rate  59
  wm-sc4  rate  60
  sb-bc  rate  61
  502aw  rate  62
  502ay  rate  63
  492av  rate  64
  ruiz-6a3  rate  65
  w-16937  rate  66
  502ca  rate  67
  502cb  rate  68
  wm-124  rate  69
  w-16939  rate  70
  502cf  rate  71
  502cg  rate  72
  w-16943  rate  73
  492bg  rate  74
  502av  rate  75
  w-16791  rate  76
  502ce  rate  77
  502by  rate  78
  502bz  rate  79
  w-16953  rate  80
  502cd  rate  81
  502cc  rate  82
  ruiz-5a3  rate  83
  ruiz-5a1  rate  84
  492bf  rate  85
  sb-bev  rate  86
  492be  rate  87
  ruiz-6a1  rate  88
  sb-lei  rate  89
  492ax  rate  90
  502n  rate  91
  492bd  rate  92
  502q  rate  93
  492az  rate  94
  492cn  rate  95
  492ba  rate  96
  492ay  rate  97
  492cg  rate  98
  492bc  rate  99
  502p  rate  100
  502m  rate  101
  492aw  rate  102
  502bj  rate  103
  502bk  rate  104
  w-16191  rate  105
  492cp  rate  106
  w-16193  rate  107
  orgc-la  rate  108
  bxby-sb  rate  109
  w-15910  rate  110
  scwc-layt  rate  111
  322j  rate  112
  322k  rate  113
  yang-gg  rate  114
  322l  rate  115
  322m  rate  116
  332l  rate  117
  332k  rate  118
  342g  rate  119
  332m  rate  120
  332n  rate  121
  322t  rate  122
  342l  rate  123
  332p  rate  124
  vila-s  rate  125
  lamp-gg  rate  126
  w-16189  rate  127
  w200649  rate  128
  w200650  rate  129
  w201661  rate  130
  w201100  rate  131
  342h  rate  132
  342ab  rate  133
  342k  rate  134
  342f  rate  135
  352j  rate  136
  scwc-lafo  rate  137
  352k  rate  138
  gg-16  rate  139
  w-16187  rate  140
  w-16169  rate  141
  w-11142  rate  142
  352n  rate  143
  352p  rate  144
  ito-lag3  rate  145
  w-15918  rate  146
  w-16213  rate  147
  scwc-lamo  rate  148
  351r  rate  149
  351v  rate  150
  scwc-sbch  rate  151
  cath-s  rate  152
  351aa  rate  153
  351ab  rate  154
  pltz-gg  rate  155
  nvlr-lah1  rate  156
  ito-la  rate  157
  w-16185  rate  158
  scwc-lak2  rate  159
  351p  rate  160
  351w  rate  161
  scwc-lak1  rate  162
  w200648  rate  163
  w200677  rate  164
  w-16207  rate  165
  w200651  rate  166
  w200787  rate  167
  351q  rate  168
  351u  rate  169
  361ab  rate  170
  361ak  rate  171
  361ap  rate  172
  361aq  rate  173
  361ac  rate  174
  361ag  rate  175
  w-16209  rate  176
  w200595  rate  177
  361ad  rate  178
  361ah  rate  179
  gg-22  rate  180
  w200675  rate  181
  w200676  rate  182
  scwc-ssp  rate  183
  361ae  rate  184
  361aj  rate  185
  nvlr-lan1  rate  186
  sce-ggq1  rate  187
  hyns-s2  rate  188
  w-14358  rate  189
  w200640  rate  190
  360r  rate  191
  360u  rate  192
  w200639  rate  193
  scwc-lam4  rate  194
  360q  rate  195
  scwc-lam6  rate  196
  360aa  rate  197
  armd-la1  rate  198
  w200591  rate  199
  hyns-s1  rate  200
  w-15914  rate  201
  w200805  rate  202
  scwc-sorg  rate  203
  w-16177  rate  204
  w-16175  rate  205
  w-16167  rate  206
  w200590  rate  207
  370ab  rate  208
  nvlr-lag1  rate  209
  w-16203  rate  210
  scwc-laba  rate  211
  w200801  rate  212
  w200802  rate  213
  w200803  rate  214
  w200638  rate  215
  w200589  rate  216
  370ap  rate  217
  370aq  rate  218
  w-16199  rate  219
  370ac  rate  220
  370ae  rate  221
  w-16215  rate  222
  w200593  rate  223
  w-16201  rate  224
  armd-la5  rate  225
  370ah  rate  226
  370am  rate  227
  370an  rate  228
  w200806  rate  229
  w-16205  rate  230
  w200594  rate  231
  w200592  rate  232
  w200641  rate  233
  370ad  rate  234
  370af  rate  235
  w-16171  rate  236
  scwc-laho  rate  237
  w-11120  rate  238
  w-15908  rate  239
  w200642  rate  240
  879ai  rate  241
  w-14257  rate  242
  w-16109  rate  243
  w200643  rate  244
  879ad  rate  245
  879ae  rate  246
  w200637  rate  247
  scwc-lac2  rate  248
  scwc-lac3  rate  249
  wwtr-s  rate  250
  magw-a  rate  251
  w-16645  rate  252
  w200644  rate  253
  w-16075  rate  254
  scwc-lafl  rate  255
  w-16077  rate  256
  879aj  rate  257
  879ak  rate  258
  w-15788  rate  259
  w-16647  rate  260
  w-16079  rate  261
  ccc-la1  rate  262
  lart-cr2  rate  263
  miya-s  rate  264
  fjc-lak2  rate  265
  scwc-sshr  rate  266
  w200631  rate  267
  scwc-slwl  rate  268
  w200673  rate  269
  w200632  rate  270
  w200627  rate  271
  w200628  rate  272
  w200629  rate  273
  w-16585  rate  274
  w200630  rate  275
  879al  rate  276
  w202089  rate  277
  879am  rate  278
  scwc-slon  rate  279
  w203055  rate  280
  w-16639  rate  281
  scwc-scl4  rate  282
  scwc-scl3  rate  283
  w-16637  rate  284
  w-16467  rate  285
  w-16589  rate  286
  w-16591  rate  287
  w-16641  rate  288
  879an  rate  289
  w-8931  rate  290
  879ap  rate  291
  w200847  rate  292
  w-16629  rate  293
  lart-cl1  rate  294
  w200588  rate  295
  w200618  rate  296
  w200587  rate  297
  w-16587  rate  298
  w-16633  rate  299
  w200586  rate  300
  scwc-scer  rate  301
  878ap  rate  302
  878aq  rate  303
  w200584  rate  304
  w200625  rate  305
  w200626  rate  306
  w200583  rate  307
  w-16631  rate  308
  t868-s1  rate  309
  w200674  rate  310
  878am  rate  311
  878an  rate  312
  w200624  rate  313
  878al  rate  314
  878ak  rate  315
  878aj  rate  316
  878ai  rate  317
  898ad  rate  318
  898ac  rate  319
  898ai  rate  320
  888z  rate  321
  898aj  rate  322
  888aa  rate  323
  888ad  rate  324
  888y  rate  325
  888ab  rate  326
  888ac  rate  327
  888af  rate  328
  888ah  rate  329
  888ae  rate  330
  878ah  rate  331
  899ah  rate  332
  888ag  rate  333
  878ag  rate  334
  899ag  rate  335
  888aj  rate  336
  888ai  rate  337
  878ad  rate  338
  878af  rate  339
  878ae  rate  340
  savs-asc  rate  341
  w200634  rate  342
  w200636  rate  343
  w200633  rate  344
  w200620  rate  345
  w200622  rate  346
  w200621  rate  347
  w-16101  rate  348
  w200623  rate  349
  scwc-labl2  rate  350
  scwc-labl  rate  351
  w200635  rate  352
  bp-larw  rate  353
  a-53  rate  354
  w-16099  rate  355
  a-129  rate  356
  w-16627  rate  357
  728x  rate  358
  w200582  rate  359
  w-16583  rate  360
  bp-ball  rate  361
  scwc-cbal  rate  362
  w-16105  rate  363
  w-18258  rate  364
  w-16635  rate  365
  w-14031  rate  366
  728p  rate  367
  728az  rate  368
  w200585  rate  369
  w-16613  rate  370
  w-16575  rate  371
  728m  rate  372
  728n  rate  373
  w201946  rate  374
  savm-awc  rate  375
  w-16577  rate  376
  w-16579  rate  377
  728l  rate  378
  w200619  rate  379
  728w  rate  380
  w202078  rate  381
  w-16097  rate  382
  w200581  rate  383
  w200568  rate  384
  sakh-a  rate  385
  w200579  rate  386
  dono-ap1  rate  387
  a-128  rate  388
  a-107  rate  389
  w202902  rate  390
  w-15827  rate  391
  a-122  rate  392
  w200941  rate  393
  w202948  rate  394
  w-15805  rate  395
  728j  rate  396
  728k  rate  397
  w200567  rate  398
  w200612  rate  399
  w200613  rate  400
  w200615  rate  401
  w200574  rate  402
  w-16573  rate  403
  728v  rate  404
  728h  rate  405
  bott-c  rate  406
  w202901  rate  407
  w-16615  rate  408
  a-105  rate  409
  w-16617  rate  410
  w-9152  rate  411
  w-16619  rate  412
  727aq  rate  413
  727ar  rate  414
  w203029  rate  415
  w200540  rate  416
  w-16569  rate  417
  w200577  rate  418
  w-14035  rate  419
  shoz-aj1  rate  420
  w200573  rate  421
  a-39  rate  422
  w-16093  rate  423
  w-16571  rate  424
  plmw-a  rate  425
  w200578  rate  426
  w-16087  rate  427
  727ap  rate  428
  727au  rate  429
  w200614  rate  430
  w202900  rate  431
  w200611  rate  432
  a-108  rate  433
  w202822  rate  434
  w200539  rate  435
  w-16089  rate  436
  w200566  rate  437
  w200720  rate  438
  727am  rate  439
  727an  rate  440
  w-16605  rate  441
  w-9139  rate  442
  w-15825  rate  443
  727al  rate  444
  w200672  rate  445
  w-16607  rate  446
  scwc-csc  rate  447
  727at  rate  448
  scwc-cvv  rate  449
  a-51  rate  450
  a-106  rate  451
  w200671  rate  452
  w200610  rate  453
  727aj  rate  454
  727ak  rate  455
  ccol-c  rate  456
  727ah  rate  457
  w200580  rate  458
  w200719  rate  459
  w200565  rate  460
  727ax  rate  461
  bp-hold  rate  462
  727av  rate  463
  w-16559  rate  464
  w202817  rate  465
  w-9172  rate  466
  w-16555  rate  467
  w203132  rate  468
  w-16469  rate  469
  727aw  rate  470
  w-13825  rate  471
  w-13947  rate  472
  w201099  rate  473
  727af  rate  474
  727ag  rate  475
  w200940  rate  476
  camp-c  rate  477
  w-16597  rate  478
  w-16593  rate  479
  w200571  rate  480
  w-16465  rate  481
  linc-c  rate  482
  w-16557  rate  483
  w200849  rate  484
  w200572  rate  485
  w202947  rate  486
  w200575  rate  487
  w-16081  rate  488
  w200576  rate  489
  w-16083  rate  490
  727as  rate  491
  w-14021  rate  492
  hrdg-a  rate  493
  w-16551  rate  494
  727ae  rate  495
  w200564  rate  496
  w-16397  rate  497
  shoz-aq2  rate  498
  shoz-aq1  rate  499
  w-16443  rate  500
  w-16478  rate  501
  w200609  rate  502
  flwn-cq2  rate  503
  w200569  rate  504
  dons-a  rate  505
  flwn-cqs1  rate  506
  w-16488  rate  507
  w200570  rate  508
  w200608  rate  509
  flwn-cql1  rate  510
  w200605  rate  511
  flwn-cp2  rate  512
  w200850  rate  513
  727ac  rate  514
  727ad  rate  515
  w200809  rate  516
  w200535  rate  517
  w202818  rate  518
  w200616  rate  519
  w-16474  rate  520
  w200617  rate  521
  726ba  rate  522
  w-16451  rate  523
  w200536  rate  524
  w200538  rate  525
  w202829  rate  526
  w200563  rate  527
  w900946  rate  528
  w900948  rate  529
  w200601  rate  530
  w-16482  rate  531
  726ax  rate  532
  a-24  rate  533
  w-16472  rate  534
  w200553  rate  535
  scwc-cw2  rate  536
  726av  rate  537
  726aw  rate  538
  flwn-cp3  rate  539
  w200537  rate  540
  w-14340  rate  541
  cres-a  rate  542
  726au  rate  543
  a-16  rate  544
  w900960  rate  545
  w200554  rate  546
  a-dmgc  rate  547
  a-48  rate  548
  726az  rate  549
  w200534  rate  550
  w-16281  rate  551
  w-16283  rate  552
  w-16435  rate  553
  w200531  rate  554
  hald-bp  rate  555
  w202997  rate  556
  w-16273  rate  557
  726as  rate  558
  726at  rate  559
  w200533  rate  560
  w203047  rate  561
  w200532  rate  562
  w200559  rate  563
  w202996  rate  564
  726bb  rate  565
  726ar  rate  566
  w-16476  rate  567
  w-16503  rate  568
  a-37  rate  569
  b479-c  rate  570
  w-16399  rate  571
  w200562  rate  572
  acac-c  rate  573
  w-670  rate  574
  w-16449  rate  575
  w-16427  rate  576
  726ap  rate  577
  726aq  rate  578
  a-47  rate  579
  w200603  rate  580
  w-16395  rate  581
  w-16490  rate  582
  w-16486  rate  583
  a-12  rate  584
  w201998  rate  585
  w200759  rate  586
  w200598  rate  587
  w200552  rate  588
  726ay  rate  589
  w200669  rate  590
  w-15867  rate  591
  scwc-csim  rate  592
  w200558  rate  593
  726an  rate  594
  w200604  rate  595
  bp-moss  rate  596
  bp-lind  rate  597
  lp-city  rate  598
  w-15870  rate  599
  w201101  rate  600
  726bc  rate  601
  726be  rate  602
  knot-bpbs  rate  603
  w200529  rate  604
  726al  rate  605
  726am  rate  606
  knot-bps  rate  607
  w200530  rate  608
  w200670  rate  609
  726aa  rate  610
  w200556  rate  611
  w200557  rate  612
  w900944  rate  613
  w-11080  rate  614
  w202966  rate  615
  726ab  rate  616
  w200599  rate  617
  w200602  rate  618
  w200793  rate  619
  w201999  rate  620
  w203049  rate  621
  725bm  rate  622
  w200808  rate  623
  725aa  rate  624
  725au  rate  625
  725z  rate  626
  w101424  rate  627
  a-9  rate  628
  w200528  rate  629
  w200939  rate  630
  w200561  rate  631
  bp-ald  rate  632
  725af  rate  633
  725ag  rate  634
  w-14007  rate  635
  knot-bp  rate  636
  w203022  rate  637
  stor-lpa3  rate  638
  w202994  rate  639
  w202992  rate  640
  w202995  rate  641
  w202993  rate  642
  w-16387  rate  643
  725y  rate  644
  w-15865  rate  645
  725x  rate  646
  w-16391  rate  647
  w203069  rate  648
  725ad  rate  649
  725ae  rate  650
  w-5021  rate  651
  w200551  rate  652
  725w  rate  653
  miya-bp  rate  654
  w200541  rate  655
  w-16501  rate  656
  w200678  rate  657
  w-16405  rate  658
  w200560  rate  659
  w200791  rate  660
  w-15112  rate  661
  lp-degr  rate  662
  725v  rate  663
  w202843  rate  664
  w200527  rate  665
  w-5023  rate  666
  w200555  rate  667
  w200600  rate  668
  w200667  rate  669
  w202990  rate  670
  w-16271  rate  671
  w201059  rate  672
  w-16383  rate  673
  w200668  rate  674
  w203020  rate  675
  comm-lp  rate  676
  w-16425  rate  677
  w203021  rate  678
  w203046  rate  679
  w-16421  rate  680
  725ab  rate  681
  725ac  rate  682
  725u  rate  683
  w200542  rate  684
  w-16423  rate  685
  725bl  rate  686
  w-16409  rate  687
  725bj  rate  688
  725bk  rate  689
  w-16480  rate  690
  725bh  rate  691
  w900940  rate  692
  bp-chmn  rate  693
  725bg  rate  694
  w-16417  rate  695
  725be  rate  696
  725bf  rate  697
  w202833  rate  698
  delc-a  rate  699
  725bd  rate  700
  w200546  rate  701
  w-15872  rate  702
  w200597  rate  703
  bp-bois  rate  704
  w200547  rate  705
  725bn  rate  706
  w200549  rate  707
  w200548  rate  708
  w200550  rate  709
  725bc  rate  710
  w-16411  rate  711
  w202944  rate  712
  724q  rate  713
  w200653  rate  714
  w200654  rate  715
  w200655  rate  716
  w200656  rate  717
  w200657  rate  718
  w200658  rate  719
  w200659  rate  720
  w-14023  rate  721
  w200663  rate  722
  w200665  rate  723
  w200664  rate  724
  w200661  rate  725
  w200666  rate  726
  w200662  rate  727
  724w  rate  728
  724p  rate  729
  w200700  rate  730
  lp-2  rate  731
  w200543  rate  732
  w200545  rate  733
  724m  rate  734
  724n  rate  735
  724v  rate  736
  w203048  rate  737
  724l  rate  738
  page-f  rate  739
  724k  rate  740
  724j  rate  741
  w900955  rate  742
  f-chri  rate  743
  f-chri2  rate  744
  714p  rate  745
  w200596  rate  746
  bp-free  rate  747
  w-16431  rate  748
  714n  rate  749
  w200544  rate  750
  714m  rate  751
  w200769  rate  752
  w-16263  rate  753
  w-16261  rate  754
  w-16413  rate  755
  714ab  rate  756
  w200652  rate  757
  714k  rate  758
  w900935  rate  759
  w900936  rate  760
  w900938  rate  761
  w900939  rate  762
  w-16429  rate  763
  w900943  rate  764
  w201139  rate  765
  w200735  rate  766
  714ac  rate  767
  w200770  rate  768
  714l  rate  769
  w-16373  rate  770
  w200484  rate  771
  w200660  rate  772
  714u  rate  773
  714ad  rate  774
  w200737  rate  775
  w200409  rate  776
  w203045  rate  777
  w200408  rate  778
  w200277  rate  779
  w200278  rate  780
  w200481  rate  781
  w200480  rate  782
  w200482  rate  783
  714s  rate  784
  714t  rate  785
  w-14546  rate  786
  w-16359  rate  787
  lp-walk  rate  788
  w201106  rate  789
  w900933  rate  790
  bp-civc  rate  791
  w203044  rate  792
  w-14540  rate  793
  w200275  rate  794
  w200524  rate  795
  713g  rate  796
  w200739  rate  797
  bp-caba  rate  798
  bp-knot  rate  799
  w200479  rate  800
  bast-f  rate  801
  w200525  rate  802
  w-16347  rate  803
  w200417  rate  804
  w201050  rate  805
  w200402  rate  806
  713f  rate  807
  w200477  rate  808
  w202003  rate  809
  w200721  rate  810
  w200276  rate  811
  w203043  rate  812
  w-14544  rate  813
  w900854  rate  814
  w-9557  rate  815
  w-16345  rate  816
  w200412  rate  817
  w200406  rate  818
  w200403  rate  819
  bp-burn  rate  820
  w200736  rate  821
  w-16496  rate  822
  w-1933  rate  823
  703k  rate  824
  w-16494  rate  825
  w200521  rate  826
  w201982  rate  827
  703j  rate  828
  w200478  rate  829
  w200411  rate  830
  w200404  rate  831
  w200418  rate  832
  w200407  rate  833
  w200405  rate  834
  w200729  rate  835
  w200414  rate  836
  w-12863  rate  837
  w200397  rate  838
  w200374  rate  839
  w201117  rate  840
  w-4943  rate  841
  w900780  rate  842
  w900907  rate  843
  w200413  rate  844
  w200415  rate  845
  w200514  rate  846
  703h  rate  847
  w200410  rate  848
  w202941  rate  849
  w200419  rate  850
  w200965  rate  851
  f-airp  rate  852
  w200522  rate  853
  w201952  rate  854
  702q  rate  855
  bp-art  rate  856
  w200401  rate  857
  w200274  rate  858
  w200272  rate  859
  w200384  rate  860
  w200393  rate  861
  w200394  rate  862
  w200392  rate  863
  w200523  rate  864
  w200378  rate  865
  bp-stan  rate  866
  w200927  rate  867
  w200771  rate  868
  w200375  rate  869
  w200273  rate  870
  w900895  rate  871
  w200379  rate  872
  w200520  rate  873
  702p  rate  874
  w200467  rate  875
  w200814  rate  876
  w900923  rate  877
  w200515  rate  878
  w200966  rate  879
  w201966  rate  880
  w200964  rate  881
  w200943  rate  882
  w200270  rate  883
  702j  rate  884
  w900844  rate  885
  w900891  rate  886
  w900892  rate  887
  w200962  rate  888
  w200377  rate  889
  692g  rate  890
  w200390  rate  891
  w200391  rate  892
  w202079  rate  893
  w200396  rate  894
  w200395  rate  895
  w200929  rate  896
  w-16341  rate  897
  w200464  rate  898
  w200399  rate  899
  w200475  rate  900
  w200400  rate  901
  w200271  rate  902
  w202826  rate  903
  w200387  rate  904
  692l  rate  905
  w200389  rate  906
  w200463  rate  907
  w203039  rate  908
  w200269  rate  909
  w200470  rate  910
  w900847  rate  911
  w900850  rate  912
  w900851  rate  913
  w200373  rate  914
  w200383  rate  915
  w200466  rate  916
  w200468  rate  917
  w200519  rate  918
  w900902  rate  919
  691t  rate  920
  w-16357  rate  921
  w900904  rate  922
  w200462  rate  923
  w200469  rate  924
  w201980  rate  925
  w200474  rate  926
  w200518  rate  927
  692s  rate  928
  bp-sm  rate  929
  w200382  rate  930
  w200371  rate  931
  w200372  rate  932
  w200381  rate  933
  w-4981  rate  934
  w201103  rate  935
  w900845  rate  936
  w900846  rate  937
  w200268  rate  938
  w200465  rate  939
  w201149  rate  940
  w200385  rate  941
  w900899  rate  942
  w900901  rate  943
  w900900  rate  944
  w200380  rate  945
  w202067  rate  946
  w200398  rate  947
  w200851  rate  948
  w200935  rate  949
  f-coyo2  rate  950
  f-coyo  rate  951
  w200376  rate  952
  huge-a  rate  953
  w200472  rate  954
  w200473  rate  955
  w200471  rate  956
  w200267  rate  957
  f-pion  rate  958
  w-1564  rate  959
  w200386  rate  960
  chev-fn2  rate  961
  w-1562  rate  962
  w202068  rate  963
  w200263  rate  964
  w200815  rate  965
  w200476  rate  966
  w200264  rate  967
  w200816  rate  968
  w200457  rate  969
  w900781  rate  970
  w-17219  rate  971
  w200367  rate  972
  w201102  rate  973
  w200516  rate  974
  w200852  rate  975
  w200366  rate  976
  w900841  rate  977
  w900842  rate  978
  w900839  rate  979
  w200925  rate  980
  w200460  rate  981
  w900886  rate  982
  691dd  rate  983
  w200517  rate  984
  w202816  rate  985
  w200513  rate  986
  w200347  rate  987
  w200348  rate  988
  w900878  rate  989
  w900879  rate  990
  w900922  rate  991
  w900921  rate  992
  w900916  rate  993
  w900917  rate  994
  w900918  rate  995
  w200817  rate  996
  w200795  rate  997
  w200262  rate  998
  w200265  rate  999
  w202961  rate  1000
  w200355  rate  1001
  691ee  rate  1002
  w201867  rate  1003
  w200266  rate  1004
  w900836  rate  1005
  w900837  rate  1006
  w200365  rate  1007
  w900885  rate  1008
  w900883  rate  1009
  w201085  rate  1010
  w200511  rate  1011
  w200853  rate  1012
  w201096  rate  1013
  w900914  rate  1014
  w200370  rate  1015
  w200364  rate  1016
  w200361  rate  1017
  690d  rate  1018
  w200818  rate  1019
  w200950  rate  1020
  w201086  rate  1021
  w200350  rate  1022
  w200836  rate  1023
  w200360  rate  1024
  w200359  rate  1025
  w200508  rate  1026
  w200512  rate  1027
  w200434  rate  1028
  w200346  rate  1029
  w200354  rate  1030
  w200353  rate  1031
  w200848  rate  1032
  690j  rate  1033
  690l  rate  1034
  w200944  rate  1035
  w200922  rate  1036
  w200923  rate  1037
  w200461  rate  1038
  w900919  rate  1039
  w200358  rate  1040
  w200261  rate  1041
  w200362  rate  1042
  w200363  rate  1043
  w200459  rate  1044
  w200458  rate  1045
  w200819  rate  1046
  w200368  rate  1047
  w900880  rate  1048
  690h  rate  1049
  690k  rate  1050
  w200349  rate  1051
  w200352  rate  1052
  w200967  rate  1053
  w200357  rate  1054
  w200854  rate  1055
  w200855  rate  1056
  w200856  rate  1057
  w200456  rate  1058
  w203013  rate  1059
  w200455  rate  1060
  w200356  rate  1061
  w200820  rate  1062
  w202066  rate  1063
  w200260  rate  1064
  w201047  rate  1065
  700e  rate  1066
  700f  rate  1067
  w200369  rate  1068
  w200510  rate  1069
  w200945  rate  1070
  w200509  rate  1071
  w200249  rate  1072
  w200255  rate  1073
  w200331  rate  1074
  w200450  rate  1075
  1309ad  rate  1076
  1309al  rate  1077
  w200338  rate  1078
  w203041  rate  1079
  w203042  rate  1080
  w200919  rate  1081
  w900868  rate  1082
  w900869  rate  1083
  w900991  rate  1084
  w200932  rate  1085
  w200946  rate  1086
  w200506  rate  1087
  w200507  rate  1088
  1309e  rate  1089
  w200327  rate  1090
  w200253  rate  1091
  w900782  rate  1092
  w200330  rate  1093
  w200857  rate  1094
  w200858  rate  1095
  w200251  rate  1096
  w201104  rate  1097
  w201105  rate  1098
  w200259  rate  1099
  1309ah  rate  1100
  1309ai  rate  1101
  w200258  rate  1102
  w200947  rate  1103
  1309f  rate  1104
  w900631  rate  1105
  w201410  rate  1106
  w902111  rate  1107
  w200917  rate  1108
  w200325  rate  1109
  w200504  rate  1110
  w200326  rate  1111
  w200453  rate  1112
  w200335  rate  1113
  w200869  rate  1114
  w200345  rate  1115
  w203011  rate  1116
  w203068  rate  1117
  w200252  rate  1118
  w203017  rate  1119
  w203018  rate  1120
  w900913  rate  1121
  1309ae  rate  1122
  1309ak  rate  1123
  1309aq  rate  1124
  1309ar  rate  1125
  w200254  rate  1126
  w200822  rate  1127
  w200448  rate  1128
  w200328  rate  1129
  w202841  rate  1130
  w200329  rate  1131
  w200334  rate  1132
  w200442  rate  1133
  w200336  rate  1134
  w101749  rate  1135
  w202840  rate  1136
  w101748  rate  1137
  w101747  rate  1138
  w200447  rate  1139
  w202837  rate  1140
  w201253  rate  1141
  w200250  rate  1142
  w202836  rate  1143
  w201057  rate  1144
  1309af  rate  1145
  1309aj  rate  1146
  w202839  rate  1147
  w200257  rate  1148
  w200501  rate  1149
  w200500  rate  1150
  w200440  rate  1151
  w201056  rate  1152
  w202823  rate  1153
  w101746  rate  1154
  w200248  rate  1155
  w200912  rate  1156
  w200337  rate  1157
  w200449  rate  1158
  w202838  rate  1159
  w200446  rate  1160
  w200918  rate  1161
  w101028  rate  1162
  w202943  rate  1163
  w200920  rate  1164
  w200921  rate  1165
  w900874  rate  1166
  w200931  rate  1167
  w200445  rate  1168
  w200452  rate  1169
  w200867  rate  1170
  w200701  rate  1171
  w200342  rate  1172
  w200704  rate  1173
  w200703  rate  1174
  w200702  rate  1175
  w200706  rate  1176
  w200707  rate  1177
  w200444  rate  1178
  w200454  rate  1179
  w200708  rate  1180
  w200709  rate  1181
  w200710  rate  1182
  w200256  rate  1183
  w200711  rate  1184
  w200712  rate  1185
  w200713  rate  1186
  w200324  rate  1187
  w200441  rate  1188
  w200341  rate  1189
  w200715  rate  1190
  w200332  rate  1191
  w200443  rate  1192
  w200716  rate  1193
  w200717  rate  1194
  1309s  rate  1195
  w200718  rate  1196
  w200333  rate  1197
  w200859  rate  1198
  w200439  rate  1199
  w200451  rate  1200
  1309ag  rate  1201
  w200842  rate  1202
  w900863  rate  1203
  w900866  rate  1204
  w200343  rate  1205
  w900870  rate  1206
  w900871  rate  1207
  w200339  rate  1208
  w200340  rate  1209
  w200505  rate  1210
  w200323  rate  1211
  1308d  rate  1212
  w202965  rate  1213
  w200322  rate  1214
  w200321  rate  1215
  1308ad  rate  1216
  1308ae  rate  1217
  1308am  rate  1218
  w202821  rate  1219
  w200503  rate  1220
  w200499  rate  1221
  w200314  rate  1222
  w202899  rate  1223
  w200308  rate  1224
  w200502  rate  1225
  1308aa  rate  1226
  1308aj  rate  1227
  w202842  rate  1228
  w900861  rate  1229
  w901075  rate  1230
  1308ah  rate  1231
  1308z  rate  1232
  w900859  rate  1233
  w200948  rate  1234
  w200318  rate  1235
  w200492  rate  1236
  w200430  rate  1237
  w200429  rate  1238
  1308ac  rate  1239
  1308ag  rate  1240
  w200493  rate  1241
  w200427  rate  1242
  w200428  rate  1243
  w200491  rate  1244
  w200436  rate  1245
  w200246  rate  1246
  w200310  rate  1247
  1308ab  rate  1248
  1308af  rate  1249
  w200433  rate  1250
  w200838  rate  1251
  1307af  rate  1252
  1307x  rate  1253
  w200490  rate  1254
  w200426  rate  1255
  w200824  rate  1256
  w200309  rate  1257
  w200432  rate  1258
  w200317  rate  1259
  w200823  rate  1260
  1307ae  rate  1261
  1307w  rate  1262
  w200498  rate  1263
  w201419  rate  1264
  w200313  rate  1265
  w200496  rate  1266
  w200495  rate  1267
  w200840  rate  1268
  1307ad  rate  1269
  1307v  rate  1270
  w200245  rate  1271
  w200244  rate  1272
  w200319  rate  1273
  w201063  rate  1274
  w201062  rate  1275
  w200435  rate  1276
  w200497  rate  1277
  1307ac  rate  1278
  1307u  rate  1279
  w200784  rate  1280
  w200494  rate  1281
  w200431  rate  1282
  w200311  rate  1283
  w200316  rate  1284
  w200312  rate  1285
  1307ab  rate  1286
  1307t  rate  1287
  w200243  rate  1288
  w200242  rate  1289
  w200841  rate  1290
  w200916  rate  1291
  w200930  rate  1292
  1307aa  rate  1293
  1307s  rate  1294
  w200306  rate  1295
  w200296  rate  1296
  w200320  rate  1297
  w200307  rate  1298
  w200315  rate  1299
  w200284  rate  1300
  1307r  rate  1301
  1307z  rate  1302
  w200227  rate  1303
  1307q  rate  1304
  1307y  rate  1305
  w200423  rate  1306
  w200238  rate  1307
  w200239  rate  1308
  w900832  rate  1309
  w200240  rate  1310
  w200241  rate  1311
  w900833  rate  1312
  w200424  rate  1313
  w202962  rate  1314
  w203040  rate  1315
  1306h  rate  1316
  1306j  rate  1317
  w900639  rate  1318
  w200305  rate  1319
  w202825  rate  1320
  w200489  rate  1321
  w200290  rate  1322
  w200488  rate  1323
  w200794  rate  1324
  w200297  rate  1325
  w900641  rate  1326
  w200298  rate  1327
  w200422  rate  1328
  w200421  rate  1329
  w200283  rate  1330
  w200228  rate  1331
  w200229  rate  1332
  w200281  rate  1333
  w200287  rate  1334
  w200236  rate  1335
  w200237  rate  1336
  w200286  rate  1337
  w200485  rate  1338
  w202820  rate  1339
  w200289  rate  1340
  w200487  rate  1341
  w200295  rate  1342
  w202819  rate  1343
  w200486  rate  1344
  w200232  rate  1345
  w901036  rate  1346
  w200231  rate  1347
  w202945  rate  1348
  w202946  rate  1349
  w200282  rate  1350
  w200425  rate  1351
  w200280  rate  1352
  w202939  rate  1353
  w200285  rate  1354
  w200304  rate  1355
  w200420  rate  1356
  w200279  rate  1357
  w200230  rate  1358
  w200783  rate  1359
  w200302  rate  1360
  w202848  rate  1361
  w200300  rate  1362
  w200234  rate  1363
  w200235  rate  1364
  w900857  rate  1365
  w200294  rate  1366
  w200292  rate  1367
  w201337  rate  1368
  w200301  rate  1369
  w901676  rate  1370
  w200293  rate  1371
  w200025  rate  1372
  w201285  rate  1373
  w200288  rate  1374
  w200299  rate  1375
  w200303  rate  1376
  w202955  rate  1377
  w200291  rate  1378
  w200132  rate  1379
  w200203  rate  1380
  w200698  rate  1381
  w900811  rate  1382
  w200202  rate  1383
  w200195  rate  1384
  w200129  rate  1385
  w202903  rate  1386
  w200200  rate  1387
  w200199  rate  1388
  w200201  rate  1389
  w202904  rate  1390
  w200122  rate  1391
  w200121  rate  1392
  w200024  rate  1393
  w200131  rate  1394
  w200127  rate  1395
  w200023  rate  1396
  w200134  rate  1397
  w200126  rate  1398
  w200226  rate  1399
  w200120  rate  1400
  w200128  rate  1401
  w200119  rate  1402
  w200207  rate  1403
  w200206  rate  1404
  w200225  rate  1405
  w200208  rate  1406
  w200780  rate  1407
  w200125  rate  1408
  w202991  rate  1409
  w200133  rate  1410
  w200205  rate  1411
  w200117  rate  1412
  w200204  rate  1413
  w201374  rate  1414
  w200124  rate  1415
  w200904  rate  1416
  w200905  rate  1417
  w200906  rate  1418
  w200123  rate  1419
  w200102  rate  1420
  w200130  rate  1421
  w200954  rate  1422
  w200782  rate  1423
  w200779  rate  1424
  w200118  rate  1425
  w200825  rate  1426
  w200022  rate  1427
  w200110  rate  1428
  w200109  rate  1429
  w200098  rate  1430
  w200021  rate  1431
  w203038  rate  1432
  w200223  rate  1433
  w200224  rate  1434
  w200888  rate  1435
  w900807  rate  1436
  w200185  rate  1437
  w202959  rate  1438
  w200105  rate  1439
  w200114  rate  1440
  w200826  rate  1441
  w200107  rate  1442