# File generated by Flopy version 3.3.4 on 10/07/2021 at 07:20:08.
BEGIN options
  BOUNDNAMES
  PRINT_INPUT
  SAVE_FLOWS
END options

BEGIN dimensions
  MAXBOUND  7
END dimensions

BEGIN period  1
  2 43 152     186.74400000   20000.00000000  ghblan_mes
  2 43 153     189.89300000   20000.00000000  ghblan_mes
  2 43 154     193.04200000   20000.00000000  ghblan_mes
  2 43 155     196.19100000   20000.00000000  ghblan_mes
  2 43 156     199.34000000   20000.00000000  ghblan_mes
  2 43 157     202.48900000   20000.00000000  ghblan_mes
  2 43 158     205.63800000   20000.00000000  ghblan_mes
END period  1

BEGIN period  2
  2 43 152     186.74400000   20000.00000000  ghblan_mes
  2 43 153     189.89300000   20000.00000000  ghblan_mes
  2 43 154     193.04200000   20000.00000000  ghblan_mes
  2 43 155     196.19100000   20000.00000000  ghblan_mes
  2 43 156     199.34000000   20000.00000000  ghblan_mes
  2 43 157     202.48900000   20000.00000000  ghblan_mes
  2 43 158     205.63800000   20000.00000000  ghblan_mes
END period  2

BEGIN period  3
  2 43 152     186.59400000   20000.00000000  ghblan_mes
  2 43 153     189.74300000   20000.00000000  ghblan_mes
  2 43 154     192.89200000   20000.00000000  ghblan_mes
  2 43 155     196.04100000   20000.00000000  ghblan_mes
  2 43 156     199.19000000   20000.00000000  ghblan_mes
  2 43 157     202.33900000   20000.00000000  ghblan_mes
  2 43 158     205.48800000   20000.00000000  ghblan_mes
END period  3

BEGIN period  4
  2 43 152     186.44400000   20000.00000000  ghblan_mes
  2 43 153     189.59300000   20000.00000000  ghblan_mes
  2 43 154     192.74200000   20000.00000000  ghblan_mes
  2 43 155     195.89100000   20000.00000000  ghblan_mes
  2 43 156     199.04000000   20000.00000000  ghblan_mes
  2 43 157     202.18900000   20000.00000000  ghblan_mes
  2 43 158     205.33800000   20000.00000000  ghblan_mes
END period  4

BEGIN period  5
  2 43 152     184.69400000   20000.00000000  ghblan_mes
  2 43 153     187.84300000   20000.00000000  ghblan_mes
  2 43 154     190.99200000   20000.00000000  ghblan_mes
  2 43 155     194.14100000   20000.00000000  ghblan_mes
  2 43 156     197.29000000   20000.00000000  ghblan_mes
  2 43 157     200.43900000   20000.00000000  ghblan_mes
  2 43 158     203.58800000   20000.00000000  ghblan_mes
END period  5

BEGIN period  6
  2 43 152     182.94400000   20000.00000000  ghblan_mes
  2 43 153     186.09300000   20000.00000000  ghblan_mes
  2 43 154     189.24200000   20000.00000000  ghblan_mes
  2 43 155     192.39100000   20000.00000000  ghblan_mes
  2 43 156     195.54000000   20000.00000000  ghblan_mes
  2 43 157     198.68900000   20000.00000000  ghblan_mes
  2 43 158     201.83800000   20000.00000000  ghblan_mes
END period  6

BEGIN period  7
  2 43 152     184.54400000   20000.00000000  ghblan_mes
  2 43 153     187.69300000   20000.00000000  ghblan_mes
  2 43 154     190.84200000   20000.00000000  ghblan_mes
  2 43 155     193.99100000   20000.00000000  ghblan_mes
  2 43 156     197.14000000   20000.00000000  ghblan_mes
  2 43 157     200.28900000   20000.00000000  ghblan_mes
  2 43 158     203.43800000   20000.00000000  ghblan_mes
END period  7

BEGIN period  8
  2 43 152     183.74400000   20000.00000000  ghblan_mes
  2 43 153     186.89300000   20000.00000000  ghblan_mes
  2 43 154     190.04200000   20000.00000000  ghblan_mes
  2 43 155     193.19100000   20000.00000000  ghblan_mes
  2 43 156     196.34000000   20000.00000000  ghblan_mes
  2 43 157     199.48900000   20000.00000000  ghblan_mes
  2 43 158     202.63800000   20000.00000000  ghblan_mes
END period  8

BEGIN period  9
  2 43 152     185.34400000   20000.00000000  ghblan_mes
  2 43 153     188.49300000   20000.00000000  ghblan_mes
  2 43 154     191.64200000   20000.00000000  ghblan_mes
  2 43 155     194.79100000   20000.00000000  ghblan_mes
  2 43 156     197.94000000   20000.00000000  ghblan_mes
  2 43 157     201.08900000   20000.00000000  ghblan_mes
  2 43 158     204.23800000   20000.00000000  ghblan_mes
END period  9

BEGIN period  10
  2 43 152     185.34400000   20000.00000000  ghblan_mes
  2 43 153     188.49300000   20000.00000000  ghblan_mes
  2 43 154     191.64200000   20000.00000000  ghblan_mes
  2 43 155     194.79100000   20000.00000000  ghblan_mes
  2 43 156     197.94000000   20000.00000000  ghblan_mes
  2 43 157     201.08900000   20000.00000000  ghblan_mes
  2 43 158     204.23800000   20000.00000000  ghblan_mes
END period  10

BEGIN period  11
  2 43 152     185.54400000   20000.00000000  ghblan_mes
  2 43 153     188.69300000   20000.00000000  ghblan_mes
  2 43 154     191.84200000   20000.00000000  ghblan_mes
  2 43 155     194.99100000   20000.00000000  ghblan_mes
  2 43 156     198.14000000   20000.00000000  ghblan_mes
  2 43 157     201.28900000   20000.00000000  ghblan_mes
  2 43 158     204.43800000   20000.00000000  ghblan_mes
END period  11

BEGIN period  12
  2 43 152     185.74400000   20000.00000000  ghblan_mes
  2 43 153     188.89300000   20000.00000000  ghblan_mes
  2 43 154     192.04200000   20000.00000000  ghblan_mes
  2 43 155     195.19100000   20000.00000000  ghblan_mes
  2 43 156     198.34000000   20000.00000000  ghblan_mes
  2 43 157     201.48900000   20000.00000000  ghblan_mes
  2 43 158     204.63800000   20000.00000000  ghblan_mes
END period  12

BEGIN period  13
  2 43 152     185.84400000   20000.00000000  ghblan_mes
  2 43 153     188.99300000   20000.00000000  ghblan_mes
  2 43 154     192.14200000   20000.00000000  ghblan_mes
  2 43 155     195.29100000   20000.00000000  ghblan_mes
  2 43 156     198.44000000   20000.00000000  ghblan_mes
  2 43 157     201.58900000   20000.00000000  ghblan_mes
  2 43 158     204.73800000   20000.00000000  ghblan_mes
END period  13

BEGIN period  14
  2 43 152     185.94400000   20000.00000000  ghblan_mes
  2 43 153     189.09300000   20000.00000000  ghblan_mes
  2 43 154     192.24200000   20000.00000000  ghblan_mes
  2 43 155     195.39100000   20000.00000000  ghblan_mes
  2 43 156     198.54000000   20000.00000000  ghblan_mes
  2 43 157     201.68900000   20000.00000000  ghblan_mes
  2 43 158     204.83800000   20000.00000000  ghblan_mes
END period  14

BEGIN period  15
  2 43 152     186.09400000   20000.00000000  ghblan_mes
  2 43 153     189.24300000   20000.00000000  ghblan_mes
  2 43 154     192.39200000   20000.00000000  ghblan_mes
  2 43 155     195.54100000   20000.00000000  ghblan_mes
  2 43 156     198.69000000   20000.00000000  ghblan_mes
  2 43 157     201.83900000   20000.00000000  ghblan_mes
  2 43 158     204.98800000   20000.00000000  ghblan_mes
END period  15

BEGIN period  16
  2 43 152     186.24400000   20000.00000000  ghblan_mes
  2 43 153     189.39300000   20000.00000000  ghblan_mes
  2 43 154     192.54200000   20000.00000000  ghblan_mes
  2 43 155     195.69100000   20000.00000000  ghblan_mes
  2 43 156     198.84000000   20000.00000000  ghblan_mes
  2 43 157     201.98900000   20000.00000000  ghblan_mes
  2 43 158     205.13800000   20000.00000000  ghblan_mes
END period  16

BEGIN period  17
  2 43 152     186.29400000   20000.00000000  ghblan_mes
  2 43 153     189.44300000   20000.00000000  ghblan_mes
  2 43 154     192.59200000   20000.00000000  ghblan_mes
  2 43 155     195.74100000   20000.00000000  ghblan_mes
  2 43 156     198.89000000   20000.00000000  ghblan_mes
  2 43 157     202.03900000   20000.00000000  ghblan_mes
  2 43 158     205.18800000   20000.00000000  ghblan_mes
END period  17

BEGIN period  18
  2 43 152     186.34400000   20000.00000000  ghblan_mes
  2 43 153     189.49300000   20000.00000000  ghblan_mes
  2 43 154     192.64200000   20000.00000000  ghblan_mes
  2 43 155     195.79100000   20000.00000000  ghblan_mes
  2 43 156     198.94000000   20000.00000000  ghblan_mes
  2 43 157     202.08900000   20000.00000000  ghblan_mes
  2 43 158     205.23800000   20000.00000000  ghblan_mes
END period  18

BEGIN period  19
  2 43 152     186.34400000   20000.00000000  ghblan_mes
  2 43 153     189.49300000   20000.00000000  ghblan_mes
  2 43 154     192.64200000   20000.00000000  ghblan_mes
  2 43 155     195.79100000   20000.00000000  ghblan_mes
  2 43 156     198.94000000   20000.00000000  ghblan_mes
  2 43 157     202.08900000   20000.00000000  ghblan_mes
  2 43 158     205.23800000   20000.00000000  ghblan_mes
END period  19

BEGIN period  20
  2 43 152     186.34400000   20000.00000000  ghblan_mes
  2 43 153     189.49300000   20000.00000000  ghblan_mes
  2 43 154     192.64200000   20000.00000000  ghblan_mes
  2 43 155     195.79100000   20000.00000000  ghblan_mes
  2 43 156     198.94000000   20000.00000000  ghblan_mes
  2 43 157     202.08900000   20000.00000000  ghblan_mes
  2 43 158     205.23800000   20000.00000000  ghblan_mes
END period  20

BEGIN period  21
  2 43 152     186.39400000   20000.00000000  ghblan_mes
  2 43 153     189.54300000   20000.00000000  ghblan_mes
  2 43 154     192.69200000   20000.00000000  ghblan_mes
  2 43 155     195.84100000   20000.00000000  ghblan_mes
  2 43 156     198.99000000   20000.00000000  ghblan_mes
  2 43 157     202.13900000   20000.00000000  ghblan_mes
  2 43 158     205.28800000   20000.00000000  ghblan_mes
END period  21

BEGIN period  22
  2 43 152     186.44400000   20000.00000000  ghblan_mes
  2 43 153     189.59300000   20000.00000000  ghblan_mes
  2 43 154     192.74200000   20000.00000000  ghblan_mes
  2 43 155     195.89100000   20000.00000000  ghblan_mes
  2 43 156     199.04000000   20000.00000000  ghblan_mes
  2 43 157     202.18900000   20000.00000000  ghblan_mes
  2 43 158     205.33800000   20000.00000000  ghblan_mes
END period  22

BEGIN period  23
  2 43 152     186.24400000   20000.00000000  ghblan_mes
  2 43 153     189.39300000   20000.00000000  ghblan_mes
  2 43 154     192.54200000   20000.00000000  ghblan_mes
  2 43 155     195.69100000   20000.00000000  ghblan_mes
  2 43 156     198.84000000   20000.00000000  ghblan_mes
  2 43 157     201.98900000   20000.00000000  ghblan_mes
  2 43 158     205.13800000   20000.00000000  ghblan_mes
END period  23

BEGIN period  24
  2 43 152     186.04400000   20000.00000000  ghblan_mes
  2 43 153     189.19300000   20000.00000000  ghblan_mes
  2 43 154     192.34200000   20000.00000000  ghblan_mes
  2 43 155     195.49100000   20000.00000000  ghblan_mes
  2 43 156     198.64000000   20000.00000000  ghblan_mes
  2 43 157     201.78900000   20000.00000000  ghblan_mes
  2 43 158     204.93800000   20000.00000000  ghblan_mes
END period  24

BEGIN period  25
  2 43 152     185.79400000   20000.00000000  ghblan_mes
  2 43 153     188.94300000   20000.00000000  ghblan_mes
  2 43 154     192.09200000   20000.00000000  ghblan_mes
  2 43 155     195.24100000   20000.00000000  ghblan_mes
  2 43 156     198.39000000   20000.00000000  ghblan_mes
  2 43 157     201.53900000   20000.00000000  ghblan_mes
  2 43 158     204.68800000   20000.00000000  ghblan_mes
END period  25

BEGIN period  26
  2 43 152     185.54400000   20000.00000000  ghblan_mes
  2 43 153     188.69300000   20000.00000000  ghblan_mes
  2 43 154     191.84200000   20000.00000000  ghblan_mes
  2 43 155     194.99100000   20000.00000000  ghblan_mes
  2 43 156     198.14000000   20000.00000000  ghblan_mes
  2 43 157     201.28900000   20000.00000000  ghblan_mes
  2 43 158     204.43800000   20000.00000000  ghblan_mes
END period  26

BEGIN period  27
  2 43 152     185.39400000   20000.00000000  ghblan_mes
  2 43 153     188.54300000   20000.00000000  ghblan_mes
  2 43 154     191.69200000   20000.00000000  ghblan_mes
  2 43 155     194.84100000   20000.00000000  ghblan_mes
  2 43 156     197.99000000   20000.00000000  ghblan_mes
  2 43 157     201.13900000   20000.00000000  ghblan_mes
  2 43 158     204.28800000   20000.00000000  ghblan_mes
END period  27

BEGIN period  28
  2 43 152     185.24400000   20000.00000000  ghblan_mes
  2 43 153     188.39300000   20000.00000000  ghblan_mes
  2 43 154     191.54200000   20000.00000000  ghblan_mes
  2 43 155     194.69100000   20000.00000000  ghblan_mes
  2 43 156     197.84000000   20000.00000000  ghblan_mes
  2 43 157     200.98900000   20000.00000000  ghblan_mes
  2 43 158     204.13800000   20000.00000000  ghblan_mes
END period  28

BEGIN period  29
  2 43 152     185.39400000   20000.00000000  ghblan_mes
  2 43 153     188.54300000   20000.00000000  ghblan_mes
  2 43 154     191.69200000   20000.00000000  ghblan_mes
  2 43 155     194.84100000   20000.00000000  ghblan_mes
  2 43 156     197.99000000   20000.00000000  ghblan_mes
  2 43 157     201.13900000   20000.00000000  ghblan_mes
  2 43 158     204.28800000   20000.00000000  ghblan_mes
END period  29

BEGIN period  30
  2 43 152     185.54400000   20000.00000000  ghblan_mes
  2 43 153     188.69300000   20000.00000000  ghblan_mes
  2 43 154     191.84200000   20000.00000000  ghblan_mes
  2 43 155     194.99100000   20000.00000000  ghblan_mes
  2 43 156     198.14000000   20000.00000000  ghblan_mes
  2 43 157     201.28900000   20000.00000000  ghblan_mes
  2 43 158     204.43800000   20000.00000000  ghblan_mes
END period  30

BEGIN period  31
  2 43 152     186.29400000   20000.00000000  ghblan_mes
  2 43 153     189.44300000   20000.00000000  ghblan_mes
  2 43 154     192.59200000   20000.00000000  ghblan_mes
  2 43 155     195.74100000   20000.00000000  ghblan_mes
  2 43 156     198.89000000   20000.00000000  ghblan_mes
  2 43 157     202.03900000   20000.00000000  ghblan_mes
  2 43 158     205.18800000   20000.00000000  ghblan_mes
END period  31

BEGIN period  32
  2 43 152     187.04400000   20000.00000000  ghblan_mes
  2 43 153     190.19300000   20000.00000000  ghblan_mes
  2 43 154     193.34200000   20000.00000000  ghblan_mes
  2 43 155     196.49100000   20000.00000000  ghblan_mes
  2 43 156     199.64000000   20000.00000000  ghblan_mes
  2 43 157     202.78900000   20000.00000000  ghblan_mes
  2 43 158     205.93800000   20000.00000000  ghblan_mes
END period  32

BEGIN period  33
  2 43 152     187.44400000   20000.00000000  ghblan_mes
  2 43 153     190.59300000   20000.00000000  ghblan_mes
  2 43 154     193.74200000   20000.00000000  ghblan_mes
  2 43 155     196.89100000   20000.00000000  ghblan_mes
  2 43 156     200.04000000   20000.00000000  ghblan_mes
  2 43 157     203.18900000   20000.00000000  ghblan_mes
  2 43 158     206.33800000   20000.00000000  ghblan_mes
END period  33

BEGIN period  34
  2 43 152     187.72700000   20000.00000000  ghblan_mes
  2 43 153     190.87600000   20000.00000000  ghblan_mes
  2 43 154     194.02500000   20000.00000000  ghblan_mes
  2 43 155     197.17400000   20000.00000000  ghblan_mes
  2 43 156     200.32300000   20000.00000000  ghblan_mes
  2 43 157     203.47200000   20000.00000000  ghblan_mes
  2 43 158     206.62100000   20000.00000000  ghblan_mes
END period  34

BEGIN period  35
  2 43 152     187.79900000   20000.00000000  ghblan_mes
  2 43 153     190.94800000   20000.00000000  ghblan_mes
  2 43 154     194.09700000   20000.00000000  ghblan_mes
  2 43 155     197.24600000   20000.00000000  ghblan_mes
  2 43 156     200.39500000   20000.00000000  ghblan_mes
  2 43 157     203.54400000   20000.00000000  ghblan_mes
  2 43 158     206.69300000   20000.00000000  ghblan_mes
END period  35

BEGIN period  36
  2 43 152     187.51400000   20000.00000000  ghblan_mes
  2 43 153     190.66300000   20000.00000000  ghblan_mes
  2 43 154     193.81200000   20000.00000000  ghblan_mes
  2 43 155     196.96100000   20000.00000000  ghblan_mes
  2 43 156     200.11000000   20000.00000000  ghblan_mes
  2 43 157     203.25900000   20000.00000000  ghblan_mes
  2 43 158     206.40800000   20000.00000000  ghblan_mes
END period  36

BEGIN period  37
  2 43 152     187.76100000   20000.00000000  ghblan_mes
  2 43 153     190.91000000   20000.00000000  ghblan_mes
  2 43 154     194.05900000   20000.00000000  ghblan_mes
  2 43 155     197.20800000   20000.00000000  ghblan_mes
  2 43 156     200.35700000   20000.00000000  ghblan_mes
  2 43 157     203.50600000   20000.00000000  ghblan_mes
  2 43 158     206.65500000   20000.00000000  ghblan_mes
END period  37

BEGIN period  38
  2 43 152     188.67400000   20000.00000000  ghblan_mes
  2 43 153     191.82300000   20000.00000000  ghblan_mes
  2 43 154     194.97200000   20000.00000000  ghblan_mes
  2 43 155     198.12100000   20000.00000000  ghblan_mes
  2 43 156     201.27000000   20000.00000000  ghblan_mes
  2 43 157     204.41900000   20000.00000000  ghblan_mes
  2 43 158     207.56800000   20000.00000000  ghblan_mes
END period  38

BEGIN period  39
  2 43 152     189.09800000   20000.00000000  ghblan_mes
  2 43 153     192.24700000   20000.00000000  ghblan_mes
  2 43 154     195.39600000   20000.00000000  ghblan_mes
  2 43 155     198.54500000   20000.00000000  ghblan_mes
  2 43 156     201.69400000   20000.00000000  ghblan_mes
  2 43 157     204.84300000   20000.00000000  ghblan_mes
  2 43 158     207.99200000   20000.00000000  ghblan_mes
END period  39

BEGIN period  40
  2 43 152     188.84700000   20000.00000000  ghblan_mes
  2 43 153     191.99600000   20000.00000000  ghblan_mes
  2 43 154     195.14500000   20000.00000000  ghblan_mes
  2 43 155     198.29400000   20000.00000000  ghblan_mes
  2 43 156     201.44300000   20000.00000000  ghblan_mes
  2 43 157     204.59200000   20000.00000000  ghblan_mes
  2 43 158     207.74100000   20000.00000000  ghblan_mes
END period  40

BEGIN period  41
  2 43 152     188.44600000   20000.00000000  ghblan_mes
  2 43 153     191.59500000   20000.00000000  ghblan_mes
  2 43 154     194.74400000   20000.00000000  ghblan_mes
  2 43 155     197.89300000   20000.00000000  ghblan_mes
  2 43 156     201.04200000   20000.00000000  ghblan_mes
  2 43 157     204.19100000   20000.00000000  ghblan_mes
  2 43 158     207.34000000   20000.00000000  ghblan_mes
END period  41

BEGIN period  42
  2 43 152     188.14400000   20000.00000000  ghblan_mes
  2 43 153     191.29300000   20000.00000000  ghblan_mes
  2 43 154     194.44200000   20000.00000000  ghblan_mes
  2 43 155     197.59100000   20000.00000000  ghblan_mes
  2 43 156     200.74000000   20000.00000000  ghblan_mes
  2 43 157     203.88900000   20000.00000000  ghblan_mes
  2 43 158     207.03800000   20000.00000000  ghblan_mes
END period  42

BEGIN period  43
  2 43 152     187.89600000   20000.00000000  ghblan_mes
  2 43 153     191.04500000   20000.00000000  ghblan_mes
  2 43 154     194.19400000   20000.00000000  ghblan_mes
  2 43 155     197.34300000   20000.00000000  ghblan_mes
  2 43 156     200.49200000   20000.00000000  ghblan_mes
  2 43 157     203.64100000   20000.00000000  ghblan_mes
  2 43 158     206.79000000   20000.00000000  ghblan_mes
END period  43

BEGIN period  44
  2 43 152     187.62600000   20000.00000000  ghblan_mes
  2 43 153     190.77500000   20000.00000000  ghblan_mes
  2 43 154     193.92400000   20000.00000000  ghblan_mes
  2 43 155     197.07300000   20000.00000000  ghblan_mes
  2 43 156     200.22200000   20000.00000000  ghblan_mes
  2 43 157     203.37100000   20000.00000000  ghblan_mes
  2 43 158     206.52000000   20000.00000000  ghblan_mes
END period  44

BEGIN period  45
  2 43 152     187.44700000   20000.00000000  ghblan_mes
  2 43 153     190.59600000   20000.00000000  ghblan_mes
  2 43 154     193.74500000   20000.00000000  ghblan_mes
  2 43 155     196.89400000   20000.00000000  ghblan_mes
  2 43 156     200.04300000   20000.00000000  ghblan_mes
  2 43 157     203.19200000   20000.00000000  ghblan_mes
  2 43 158     206.34100000   20000.00000000  ghblan_mes
END period  45

BEGIN period  46
  2 43 152     187.46900000   20000.00000000  ghblan_mes
  2 43 153     190.61800000   20000.00000000  ghblan_mes
  2 43 154     193.76700000   20000.00000000  ghblan_mes
  2 43 155     196.91600000   20000.00000000  ghblan_mes
  2 43 156     200.06500000   20000.00000000  ghblan_mes
  2 43 157     203.21400000   20000.00000000  ghblan_mes
  2 43 158     206.36300000   20000.00000000  ghblan_mes
END period  46

BEGIN period  47
  2 43 152     187.50500000   20000.00000000  ghblan_mes
  2 43 153     190.65400000   20000.00000000  ghblan_mes
  2 43 154     193.80300000   20000.00000000  ghblan_mes
  2 43 155     196.95200000   20000.00000000  ghblan_mes
  2 43 156     200.10100000   20000.00000000  ghblan_mes
  2 43 157     203.25000000   20000.00000000  ghblan_mes
  2 43 158     206.39900000   20000.00000000  ghblan_mes
END period  47

BEGIN period  48
  2 43 152     187.40800000   20000.00000000  ghblan_mes
  2 43 153     190.55700000   20000.00000000  ghblan_mes
  2 43 154     193.70600000   20000.00000000  ghblan_mes
  2 43 155     196.85500000   20000.00000000  ghblan_mes
  2 43 156     200.00400000   20000.00000000  ghblan_mes
  2 43 157     203.15300000   20000.00000000  ghblan_mes
  2 43 158     206.30200000   20000.00000000  ghblan_mes
END period  48

BEGIN period  49
  2 43 152     187.78200000   20000.00000000  ghblan_mes
  2 43 153     190.93100000   20000.00000000  ghblan_mes
  2 43 154     194.08000000   20000.00000000  ghblan_mes
  2 43 155     197.22900000   20000.00000000  ghblan_mes
  2 43 156     200.37800000   20000.00000000  ghblan_mes
  2 43 157     203.52700000   20000.00000000  ghblan_mes
  2 43 158     206.67600000   20000.00000000  ghblan_mes
END period  49

BEGIN period  50
  2 43 152     188.77500000   20000.00000000  ghblan_mes
  2 43 153     191.92400000   20000.00000000  ghblan_mes
  2 43 154     195.07300000   20000.00000000  ghblan_mes
  2 43 155     198.22200000   20000.00000000  ghblan_mes
  2 43 156     201.37100000   20000.00000000  ghblan_mes
  2 43 157     204.52000000   20000.00000000  ghblan_mes
  2 43 158     207.66900000   20000.00000000  ghblan_mes
END period  50

BEGIN period  51
  2 43 152     189.32200000   20000.00000000  ghblan_mes
  2 43 153     192.47100000   20000.00000000  ghblan_mes
  2 43 154     195.62000000   20000.00000000  ghblan_mes
  2 43 155     198.76900000   20000.00000000  ghblan_mes
  2 43 156     201.91800000   20000.00000000  ghblan_mes
  2 43 157     205.06700000   20000.00000000  ghblan_mes
  2 43 158     208.21600000   20000.00000000  ghblan_mes
END period  51

BEGIN period  52
  2 43 152     189.14500000   20000.00000000  ghblan_mes
  2 43 153     192.29400000   20000.00000000  ghblan_mes
  2 43 154     195.44300000   20000.00000000  ghblan_mes
  2 43 155     198.59200000   20000.00000000  ghblan_mes
  2 43 156     201.74100000   20000.00000000  ghblan_mes
  2 43 157     204.89000000   20000.00000000  ghblan_mes
  2 43 158     208.03900000   20000.00000000  ghblan_mes
END period  52

BEGIN period  53
  2 43 152     188.91000000   20000.00000000  ghblan_mes
  2 43 153     192.05900000   20000.00000000  ghblan_mes
  2 43 154     195.20800000   20000.00000000  ghblan_mes
  2 43 155     198.35700000   20000.00000000  ghblan_mes
  2 43 156     201.50600000   20000.00000000  ghblan_mes
  2 43 157     204.65500000   20000.00000000  ghblan_mes
  2 43 158     207.80400000   20000.00000000  ghblan_mes
END period  53

BEGIN period  54
  2 43 152     188.84800000   20000.00000000  ghblan_mes
  2 43 153     191.99700000   20000.00000000  ghblan_mes
  2 43 154     195.14600000   20000.00000000  ghblan_mes
  2 43 155     198.29500000   20000.00000000  ghblan_mes
  2 43 156     201.44400000   20000.00000000  ghblan_mes
  2 43 157     204.59300000   20000.00000000  ghblan_mes
  2 43 158     207.74200000   20000.00000000  ghblan_mes
END period  54

BEGIN period  55
  2 43 152     188.77800000   20000.00000000  ghblan_mes
  2 43 153     191.92700000   20000.00000000  ghblan_mes
  2 43 154     195.07600000   20000.00000000  ghblan_mes
  2 43 155     198.22500000   20000.00000000  ghblan_mes
  2 43 156     201.37400000   20000.00000000  ghblan_mes
  2 43 157     204.52300000   20000.00000000  ghblan_mes
  2 43 158     207.67200000   20000.00000000  ghblan_mes
END period  55

BEGIN period  56
  2 43 152     188.62700000   20000.00000000  ghblan_mes
  2 43 153     191.77600000   20000.00000000  ghblan_mes
  2 43 154     194.92500000   20000.00000000  ghblan_mes
  2 43 155     198.07400000   20000.00000000  ghblan_mes
  2 43 156     201.22300000   20000.00000000  ghblan_mes
  2 43 157     204.37200000   20000.00000000  ghblan_mes
  2 43 158     207.52100000   20000.00000000  ghblan_mes
END period  56

BEGIN period  57
  2 43 152     188.61600000   20000.00000000  ghblan_mes
  2 43 153     191.76500000   20000.00000000  ghblan_mes
  2 43 154     194.91400000   20000.00000000  ghblan_mes
  2 43 155     198.06300000   20000.00000000  ghblan_mes
  2 43 156     201.21200000   20000.00000000  ghblan_mes
  2 43 157     204.36100000   20000.00000000  ghblan_mes
  2 43 158     207.51000000   20000.00000000  ghblan_mes
END period  57

BEGIN period  58
  2 43 152     188.74500000   20000.00000000  ghblan_mes
  2 43 153     191.89400000   20000.00000000  ghblan_mes
  2 43 154     195.04300000   20000.00000000  ghblan_mes
  2 43 155     198.19200000   20000.00000000  ghblan_mes
  2 43 156     201.34100000   20000.00000000  ghblan_mes
  2 43 157     204.49000000   20000.00000000  ghblan_mes
  2 43 158     207.63900000   20000.00000000  ghblan_mes
END period  58

BEGIN period  59
  2 43 152     188.47000000   20000.00000000  ghblan_mes
  2 43 153     191.61900000   20000.00000000  ghblan_mes
  2 43 154     194.76800000   20000.00000000  ghblan_mes
  2 43 155     197.91700000   20000.00000000  ghblan_mes
  2 43 156     201.06600000   20000.00000000  ghblan_mes
  2 43 157     204.21500000   20000.00000000  ghblan_mes
  2 43 158     207.36400000   20000.00000000  ghblan_mes
END period  59

BEGIN period  60
  2 43 152     187.51500000   20000.00000000  ghblan_mes
  2 43 153     190.66400000   20000.00000000  ghblan_mes
  2 43 154     193.81300000   20000.00000000  ghblan_mes
  2 43 155     196.96200000   20000.00000000  ghblan_mes
  2 43 156     200.11100000   20000.00000000  ghblan_mes
  2 43 157     203.26000000   20000.00000000  ghblan_mes
  2 43 158     206.40900000   20000.00000000  ghblan_mes
END period  60

BEGIN period  61
  2 43 152     187.06000000   20000.00000000  ghblan_mes
  2 43 153     190.20900000   20000.00000000  ghblan_mes
  2 43 154     193.35800000   20000.00000000  ghblan_mes
  2 43 155     196.50700000   20000.00000000  ghblan_mes
  2 43 156     199.65600000   20000.00000000  ghblan_mes
  2 43 157     202.80500000   20000.00000000  ghblan_mes
  2 43 158     205.95400000   20000.00000000  ghblan_mes
END period  61

BEGIN period  62
  2 43 152     187.65100000   20000.00000000  ghblan_mes
  2 43 153     190.80000000   20000.00000000  ghblan_mes
  2 43 154     193.94900000   20000.00000000  ghblan_mes
  2 43 155     197.09800000   20000.00000000  ghblan_mes
  2 43 156     200.24700000   20000.00000000  ghblan_mes
  2 43 157     203.39600000   20000.00000000  ghblan_mes
  2 43 158     206.54500000   20000.00000000  ghblan_mes
END period  62

BEGIN period  63
  2 43 152     188.22400000   20000.00000000  ghblan_mes
  2 43 153     191.37300000   20000.00000000  ghblan_mes
  2 43 154     194.52200000   20000.00000000  ghblan_mes
  2 43 155     197.67100000   20000.00000000  ghblan_mes
  2 43 156     200.82000000   20000.00000000  ghblan_mes
  2 43 157     203.96900000   20000.00000000  ghblan_mes
  2 43 158     207.11800000   20000.00000000  ghblan_mes
END period  63

BEGIN period  64
  2 43 152     188.43600000   20000.00000000  ghblan_mes
  2 43 153     191.58500000   20000.00000000  ghblan_mes
  2 43 154     194.73400000   20000.00000000  ghblan_mes
  2 43 155     197.88300000   20000.00000000  ghblan_mes
  2 43 156     201.03200000   20000.00000000  ghblan_mes
  2 43 157     204.18100000   20000.00000000  ghblan_mes
  2 43 158     207.33000000   20000.00000000  ghblan_mes
END period  64

BEGIN period  65
  2 43 152     188.51800000   20000.00000000  ghblan_mes
  2 43 153     191.66700000   20000.00000000  ghblan_mes
  2 43 154     194.81600000   20000.00000000  ghblan_mes
  2 43 155     197.96500000   20000.00000000  ghblan_mes
  2 43 156     201.11400000   20000.00000000  ghblan_mes
  2 43 157     204.26300000   20000.00000000  ghblan_mes
  2 43 158     207.41200000   20000.00000000  ghblan_mes
END period  65

BEGIN period  66
  2 43 152     188.56000000   20000.00000000  ghblan_mes
  2 43 153     191.70900000   20000.00000000  ghblan_mes
  2 43 154     194.85800000   20000.00000000  ghblan_mes
  2 43 155     198.00700000   20000.00000000  ghblan_mes
  2 43 156     201.15600000   20000.00000000  ghblan_mes
  2 43 157     204.30500000   20000.00000000  ghblan_mes
  2 43 158     207.45400000   20000.00000000  ghblan_mes
END period  66

BEGIN period  67
  2 43 152     188.50700000   20000.00000000  ghblan_mes
  2 43 153     191.65600000   20000.00000000  ghblan_mes
  2 43 154     194.80500000   20000.00000000  ghblan_mes
  2 43 155     197.95400000   20000.00000000  ghblan_mes
  2 43 156     201.10300000   20000.00000000  ghblan_mes
  2 43 157     204.25200000   20000.00000000  ghblan_mes
  2 43 158     207.40100000   20000.00000000  ghblan_mes
END period  67

BEGIN period  68
  2 43 152     188.39300000   20000.00000000  ghblan_mes
  2 43 153     191.54200000   20000.00000000  ghblan_mes
  2 43 154     194.69100000   20000.00000000  ghblan_mes
  2 43 155     197.84000000   20000.00000000  ghblan_mes
  2 43 156     200.98900000   20000.00000000  ghblan_mes
  2 43 157     204.13800000   20000.00000000  ghblan_mes
  2 43 158     207.28700000   20000.00000000  ghblan_mes
END period  68

BEGIN period  69
  2 43 152     188.38400000   20000.00000000  ghblan_mes
  2 43 153     191.53300000   20000.00000000  ghblan_mes
  2 43 154     194.68200000   20000.00000000  ghblan_mes
  2 43 155     197.83100000   20000.00000000  ghblan_mes
  2 43 156     200.98000000   20000.00000000  ghblan_mes
  2 43 157     204.12900000   20000.00000000  ghblan_mes
  2 43 158     207.27800000   20000.00000000  ghblan_mes
END period  69

BEGIN period  70