# File generated by Flopy version 3.3.3 on 09/08/2021 at 13:25:08.
BEGIN options
  PRINT_OPTION  summary
  COMPLEXITY  complex
END options

BEGIN nonlinear
  OUTER_DVCLOSE       0.10000000
  OUTER_MAXIMUM  200
  UNDER_RELAXATION  dbd
  UNDER_RELAXATION_GAMMA       0.08000000
  UNDER_RELAXATION_THETA       0.80000000
  UNDER_RELAXATION_KAPPA       0.00100000
  UNDER_RELAXATION_MOMENTUM       0.00100000
  BACKTRACKING_NUMBER  22
  BACKTRACKING_TOLERANCE       1.05000000
  BACKTRACKING_REDUCTION_FACTOR       0.30000000
  BACKTRACKING_RESIDUAL_LIMIT      85.00000000
END nonlinear

BEGIN linear
  INNER_MAXIMUM  300
  INNER_DVCLOSE       0.01000000
  inner_rclose       0.10000000
  LINEAR_ACCELERATION  bicgstab
  PRECONDITIONER_LEVELS  7
  PRECONDITIONER_DROP_TOLERANCE  1.00000000E-04
  SCALING_METHOD  none
  REORDERING_METHOD  none
END linear

