BEGIN options
END options

BEGIN continuous  FILEOUT  ..\output\drn_flow_obs.csv
  balona_creek  drn  balona_creek
  santa_monica_foothills  drn  santa_monica_foothills
END continuous  FILEOUT  ..\external_files\obs\drn_flow_obs.csv

