BEGIN options
END options

BEGIN continuous  FILEOUT  ..\output\ghb_tr_flow_obs.csv
  ghboc_bs_mn  ghb  ghboc_bs_mn
  ghboc_bs_ms  ghb  ghboc_bs_ms
  ghboc_bs_s  ghb  ghboc_bs_s
  ghboc_dm_mn  ghb  ghboc_dm_mn
  ghboc_dm_ms  ghb  ghboc_dm_ms
  ghboc_dm_s  ghb  ghboc_dm_s
  ghboc_ha_mn  ghb  ghboc_ha_mn
  ghboc_ha_ms  ghb  ghboc_ha_ms
  ghboc_ha_s  ghb  ghboc_ha_s
  ghboc_la_mn  ghb  ghboc_la_mn
  ghboc_la_ms  ghb  ghboc_la_ms
  ghboc_la_s  ghb  ghboc_la_s
  ghboc_lb_mn  ghb  ghboc_lb_mn
  ghboc_lb_ms  ghb  ghboc_lb_ms
  ghboc_lb_n  ghb  ghboc_lb_n
  ghboc_lb_s  ghb  ghboc_lb_s
  ghboc_lc_mn  ghb  ghboc_lc_mn
  ghboc_lc_ms  ghb  ghboc_lc_ms
  ghboc_lc_n  ghb  ghboc_lc_n
  ghboc_lc_s  ghb  ghboc_lc_s
  ghboc_ls_n  ghb  ghboc_ls_n
  ghboc_lw_mn  ghb  ghboc_lw_mn
  ghboc_lw_ms  ghb  ghboc_lw_ms
  ghboc_lw_n  ghb  ghboc_lw_n
  ghboc_lw_s  ghb  ghboc_lw_s
  ghboc_ms_mn  ghb  ghboc_ms_mn
  ghboc_ms_ms  ghb  ghboc_ms_ms
  ghboc_ms_s  ghb  ghboc_ms_s
  ghboc_pa_mn  ghb  ghboc_pa_mn
  ghboc_pa_ms  ghb  ghboc_pa_ms
  ghboc_pc_mn  ghb  ghboc_pc_mn
  ghboc_pc_ms  ghb  ghboc_pc_ms
  ghboc_pc_n  ghb  ghboc_pc_n
  ghboc_pc_s  ghb  ghboc_pc_s
  ghboc_ua_mn  ghb  ghboc_ua_mn
  ghboc_ua_ms  ghb  ghboc_ua_ms
  ghboc_ua_n  ghb  ghboc_ua_n
  ghboc_ua_s  ghb  ghboc_ua_s
  ghboc_ub_mn  ghb  ghboc_ub_mn
  ghboc_ub_ms  ghb  ghboc_ub_ms
  ghboc_ub_n  ghb  ghboc_ub_n
  ghboc_ub_s  ghb  ghboc_ub_s
  ghbwht_lbc  ghb  ghbwht_lbc
  ghbwht_mes  ghb  ghbwht_mes
END continuous  FILEOUT  ..\output\ghb_tr_flow_obs.csv

