BEGIN options
  TIME_UNITS  days
END options

BEGIN dimensions
  NPER  228
END dimensions

BEGIN perioddata
      91.25000000  5       1.00000000
      91.25000000  5       1.00000000
      91.25000000  5       1.00000000
      91.25000000  5       1.00000000
      91.25000000  5       1.00000000
      91.25000000  5       1.00000000
      91.25000000  5       1.00000000
      91.25000000  5       1.00000000
      91.25000000  5       1.00000000
      91.25000000  5       1.00000000
      91.25000000  5       1.00000000
      91.25000000  5       1.00000000
      91.25000000  5       1.00000000
      91.25000000  5       1.00000000
      91.25000000  5       1.00000000
      91.25000000  5       1.00000000
      91.25000000  5       1.00000000
      91.25000000  5       1.00000000
      91.25000000  5       1.00000000
      91.25000000  5       1.00000000
      91.25000000  5       1.00000000
      91.25000000  5       1.00000000
      91.25000000  5       1.00000000
      91.25000000  5       1.00000000
      91.25000000  5       1.00000000
      91.25000000  5       1.00000000
      91.25000000  5       1.00000000
      91.25000000  5       1.00000000
      91.25000000  5       1.00000000
      91.25000000  5       1.00000000
      91.25000000  5       1.00000000
      91.25000000  5       1.00000000
      91.25000000  5       1.00000000
      91.25000000  5       1.00000000
      91.25000000  5       1.00000000
      91.25000000  5       1.00000000
      91.25000000  5       1.00000000
      91.25000000  5       1.00000000
      91.25000000  5       1.00000000
      91.25000000  5       1.00000000
      91.25000000  5       1.00000000
      91.25000000  5       1.00000000
      91.25000000  5       1.00000000
      91.25000000  5       1.00000000
      91.25000000  5       1.00000000
      91.25000000  5       1.00000000
      91.25000000  5       1.00000000
      91.25000000  5       1.00000000
      91.25000000  5       1.00000000
      91.25000000  5       1.00000000
      91.25000000  5       1.00000000
      91.25000000  5       1.00000000
      91.25000000  5       1.00000000
      91.25000000  5       1.00000000
      91.25000000  5       1.00000000
      91.25000000  5       1.00000000
      91.25000000  5       1.00000000
      91.25000000  5       1.00000000
      91.25000000  5       1.00000000
      91.25000000  5       1.00000000
      91.25000000  5       1.00000000
      91.25000000  5       1.00000000
      91.25000000  5       1.00000000
      91.25000000  5       1.00000000
      91.25000000  5       1.00000000
      91.25000000  5       1.00000000
      91.25000000  5       1.00000000
      91.25000000  5       1.00000000
      91.25000000  5       1.00000000
      91.25000000  5       1.00000000
      91.25000000  5       1.00000000
      91.25000000  5       1.00000000
      91.25000000  5       1.00000000
      91.25000000  5       1.00000000
      91.25000000  5       1.00000000
      91.25000000  5       1.00000000
      91.25000000  5       1.00000000
      91.25000000  5       1.00000000
      91.25000000  5       1.00000000
      91.25000000  5       1.00000000
      91.25000000  5       1.00000000
      91.25000000  5       1.00000000
      91.25000000  5       1.00000000
      91.25000000  5       1.00000000
      91.25000000  5       1.00000000
      91.25000000  5       1.00000000
      91.25000000  5       1.00000000
      91.25000000  5       1.00000000
      91.25000000  5       1.00000000
      91.25000000  5       1.00000000
      91.25000000  5       1.00000000
      91.25000000  5       1.00000000
      91.25000000  5       1.00000000
      91.25000000  5       1.00000000
      91.25000000  5       1.00000000
      91.25000000  5       1.00000000
      91.25000000  5       1.00000000
      91.25000000  5       1.00000000
      91.25000000  5       1.00000000
      91.25000000  5       1.00000000
      91.25000000  5       1.00000000
      91.25000000  5       1.00000000
      91.25000000  5       1.00000000
      91.25000000  5       1.00000000
      91.25000000  5       1.00000000
      91.25000000  5       1.00000000
      91.25000000  5       1.00000000
      91.25000000  5       1.00000000
      91.25000000  5       1.00000000
      91.25000000  5       1.00000000
      91.25000000  5       1.00000000
      91.25000000  5       1.00000000
      91.25000000  5       1.00000000
      91.25000000  5       1.00000000
      91.25000000  5       1.00000000
      91.25000000  5       1.00000000
      91.25000000  5       1.00000000
      91.25000000  5       1.00000000
      91.25000000  5       1.00000000
      91.25000000  5       1.00000000
      91.25000000  5       1.00000000
      91.25000000  5       1.00000000
      91.25000000  5       1.00000000
      91.25000000  5       1.00000000
      91.25000000  5       1.00000000
      91.25000000  5       1.00000000
      91.25000000  5       1.00000000
      91.25000000  5       1.00000000
      91.25000000  5       1.00000000
      91.25000000  5       1.00000000
      91.25000000  5       1.00000000
      91.25000000  5       1.00000000
      91.25000000  5       1.00000000
      91.25000000  5       1.00000000
      91.25000000  5       1.00000000
      91.25000000  5       1.00000000
      91.25000000  5       1.00000000
      91.25000000  5       1.00000000
      91.25000000  5       1.00000000
      91.25000000  5       1.00000000
      91.25000000  5       1.00000000
      91.25000000  5       1.00000000
      91.25000000  5       1.00000000
      91.25000000  5       1.00000000
      91.25000000  5       1.00000000
      91.25000000  5       1.00000000
      91.25000000  5       1.00000000
      91.25000000  5       1.00000000
      91.25000000  5       1.00000000
      91.25000000  5       1.00000000
      91.25000000  5       1.00000000
      91.25000000  5       1.00000000
      91.25000000  5       1.00000000
      91.25000000  5       1.00000000
      91.25000000  5       1.00000000
      91.25000000  5       1.00000000
      91.25000000  5       1.00000000
      91.25000000  5       1.00000000
      91.25000000  5       1.00000000
      91.25000000  5       1.00000000
      91.25000000  5       1.00000000
      91.25000000  5       1.00000000
      91.25000000  5       1.00000000
      91.25000000  5       1.00000000
      91.25000000  5       1.00000000
      91.25000000  5       1.00000000
      91.25000000  5       1.00000000
      91.25000000  5       1.00000000
      91.25000000  5       1.00000000
      91.25000000  5       1.00000000
      91.25000000  5       1.00000000
      91.25000000  5       1.00000000
      91.25000000  5       1.00000000
      91.25000000  5       1.00000000
      91.25000000  5       1.00000000
      91.25000000  5       1.00000000
      91.25000000  5       1.00000000
      91.25000000  5       1.00000000
      91.25000000  5       1.00000000
      91.25000000  5       1.00000000
	  30.42        2       1.00000000
	  30.42        2       1.00000000
	  30.42        2       1.00000000
	  30.42        2       1.00000000
	  30.42        2       1.00000000
	  30.42        2       1.00000000
	  30.42        2       1.00000000
	  30.42        2       1.00000000
	  30.42        2       1.00000000
	  30.42        2       1.00000000
	  30.42        2       1.00000000
	  30.42        2       1.00000000
	  30.42        2       1.00000000
	  30.42        2       1.00000000
	  30.42        2       1.00000000
	  30.42        2       1.00000000
	  30.42        2       1.00000000
	  30.42        2       1.00000000
	  30.42        2       1.00000000
	  30.42        2       1.00000000
	  30.42        2       1.00000000
	  30.42        2       1.00000000
	  30.42        2       1.00000000
	  30.42        2       1.00000000
	  30.42        2       1.00000000
	  30.42        2       1.00000000
	  30.42        2       1.00000000
	  30.42        2       1.00000000
	  30.42        2       1.00000000
	  30.42        2       1.00000000
	  30.42        2       1.00000000
	  30.42        2       1.00000000
	  30.42        2       1.00000000
	  30.42        2       1.00000000
	  30.42        2       1.00000000
	  30.42        2       1.00000000
	  30.42        2       1.00000000
	  30.42        2       1.00000000
	  30.42        2       1.00000000
	  30.42        2       1.00000000
	  30.42        2       1.00000000
	  30.42        2       1.00000000
	  30.42        2       1.00000000
	  30.42        2       1.00000000
	  30.42        2       1.00000000
	  30.42        2       1.00000000
	  30.42        2       1.00000000
	  30.42        2       1.00000000
END perioddata

