# File generated by Flopy version 3.3.3 on 03/30/2021 at 10:10:43.
BEGIN options
  BOUNDNAMES
  SAVE_FLOWS
END options

BEGIN dimensions
  MAXBOUND  63
END dimensions

BEGIN period  1
  1 88 222  3.84178727E+05  qsgrsg
  1 76 227  3.84178727E+05  qsgrsg
  1 95 221  3.84178727E+05  qsgrsg
  1 78 227  3.84178727E+05  qsgrsg
  1 98 220  3.84178727E+05  qsgrsg
  1 91 221  3.84178727E+05  qsgrsg
  1 77 227  3.84178727E+05  qsgrsg
  1 81 225  3.84178727E+05  qsgrsg
  1 80 226  3.84178727E+05  qsgrsg
  1 79 226  3.84178727E+05  qsgrsg
  1 101 217  3.84178727E+05  qsgrsg
  1 75 228  3.84178727E+05  qsgrsg
  1 82 225  3.84178727E+05  qsgrsg
  1 83 224  3.84178727E+05  qsgrsg
  1 84 224  3.84178727E+05  qsgrsg
  1 74 216  2.34860255E+05  qrhsg
  2 74 214  2.34860255E+05  qrhsg
  1 74 215  2.34860255E+05  qrhsg
  2 74 213  2.34860255E+05  qrhsg
  1 73 218  2.34860255E+05  qrhsg
  1 73 219  2.34860255E+05  qrhsg
  1 73 217  2.34860255E+05  qrhsg
  2 81 210  2.34860255E+05  qrhsg
  1 72 216  2.34860255E+05  qrhsg
  1 85 208  2.34860255E+05  qrhsg
  1 75 217  2.34860255E+05  qrhsg
  2 72 215  2.34860255E+05  qrhsg
  1 83 209  2.34860255E+05  qrhsg
  2 73 214  2.34860255E+05  qrhsg
  1 73 215  2.34860255E+05  qrhsg
  2 76 212  2.34860255E+05  qrhsg
  1 75 214  2.34860255E+05  qrhsg
  1 75 215  2.34860255E+05  qrhsg
  1 75 213  2.34860255E+05  qrhsg
  1 72 217  2.34860255E+05  qrhsg
  1 75 216  2.34860255E+05  qrhsg
  1 76 215  2.34860255E+05  qrhsg
  1 77 213  2.34860255E+05  qrhsg
  1 77 214  2.34860255E+05  qrhsg
  1 84 209  2.34860255E+05  qrhsg
  1 73 216  2.34860255E+05  qrhsg
  2 80 210  2.34860255E+05  qrhsg
  2 79 210  2.34860255E+05  qrhsg
  2 79 211  2.34860255E+05  qrhsg
  1 79 212  2.34860255E+05  qrhsg
  2 82 210  2.34860255E+05  qrhsg
  2 78 211  2.34860255E+05  qrhsg
  1 78 212  2.34860255E+05  qrhsg
  1 77 212  2.34860255E+05  qrhsg
  1 72 218  2.34860255E+05  qrhsg
  1 76 216  2.34860255E+05  qrhsg
  1 76 214  2.34860255E+05  qrhsg
  1 76 213  2.34860255E+05  qrhsg
  1 74 218  2.34860255E+05  qrhsg
  1 74 217  2.34860255E+05  qrhsg
  1 60 226   75849.85626280  qwnd
  1 60 227   75849.85626280  qwnd
  1 60 224   75849.85626280  qwnd
  1 60 225   75849.85626280  qwnd
  4 60 223   75849.85626280  qwnd
  1 61 225   75849.85626280  qwnd
  1 61 224   75849.85626280  qwnd
  1 61 226   75849.85626280  qwnd
END period  1

BEGIN period  2
  1 88 222  2.72836862E+05  qsgrsg
  1 76 227  2.72836862E+05  qsgrsg
  1 95 221  2.72836862E+05  qsgrsg
  1 78 227  2.72836862E+05  qsgrsg
  1 98 220  2.72836862E+05  qsgrsg
  1 91 221  2.72836862E+05  qsgrsg
  1 77 227  2.72836862E+05  qsgrsg
  1 81 225  2.72836862E+05  qsgrsg
  1 80 226  2.72836862E+05  qsgrsg
  1 79 226  2.72836862E+05  qsgrsg
  1 101 217  2.72836862E+05  qsgrsg
  1 75 228  2.72836862E+05  qsgrsg
  1 82 225  2.72836862E+05  qsgrsg
  1 83 224  2.72836862E+05  qsgrsg
  1 84 224  2.72836862E+05  qsgrsg
  1 74 216  1.19415819E+05  qrhsg
  2 74 214  1.19415819E+05  qrhsg
  1 74 215  1.19415819E+05  qrhsg
  2 74 213  1.19415819E+05  qrhsg
  1 73 218  1.19415819E+05  qrhsg
  1 73 219  1.19415819E+05  qrhsg
  1 73 217  1.19415819E+05  qrhsg
  2 81 210  1.19415819E+05  qrhsg
  1 72 216  1.19415819E+05  qrhsg
  1 85 208  1.19415819E+05  qrhsg
  1 75 217  1.19415819E+05  qrhsg
  2 72 215  1.19415819E+05  qrhsg
  1 83 209  1.19415819E+05  qrhsg
  2 73 214  1.19415819E+05  qrhsg
  1 73 215  1.19415819E+05  qrhsg
  2 76 212  1.19415819E+05  qrhsg
  1 75 214  1.19415819E+05  qrhsg
  1 75 215  1.19415819E+05  qrhsg
  1 75 213  1.19415819E+05  qrhsg
  1 72 217  1.19415819E+05  qrhsg
  1 75 216  1.19415819E+05  qrhsg
  1 76 215  1.19415819E+05  qrhsg
  1 77 213  1.19415819E+05  qrhsg
  1 77 214  1.19415819E+05  qrhsg
  1 84 209  1.19415819E+05  qrhsg
  1 73 216  1.19415819E+05  qrhsg
  2 80 210  1.19415819E+05  qrhsg
  2 79 210  1.19415819E+05  qrhsg
  2 79 211  1.19415819E+05  qrhsg
  1 79 212  1.19415819E+05  qrhsg
  2 82 210  1.19415819E+05  qrhsg
  2 78 211  1.19415819E+05  qrhsg
  1 78 212  1.19415819E+05  qrhsg
  1 77 212  1.19415819E+05  qrhsg
  1 72 218  1.19415819E+05  qrhsg
  1 76 216  1.19415819E+05  qrhsg
  1 76 214  1.19415819E+05  qrhsg
  1 76 213  1.19415819E+05  qrhsg
  1 74 218  1.19415819E+05  qrhsg
  1 74 217  1.19415819E+05  qrhsg
  1 60 226   94096.75564680  qwnd
  1 60 227   94096.75564680  qwnd
  1 60 224   94096.75564680  qwnd
  1 60 225   94096.75564680  qwnd
  4 60 223   94096.75564680  qwnd
  1 61 225   94096.75564680  qwnd
  1 61 224   94096.75564680  qwnd
  1 61 226   94096.75564680  qwnd
END period  2

BEGIN period  3
  1 88 222  4.33854817E+05  qsgrsg
  1 76 227  4.33854817E+05  qsgrsg
  1 95 221  4.33854817E+05  qsgrsg
  1 78 227  4.33854817E+05  qsgrsg
  1 98 220  4.33854817E+05  qsgrsg
  1 91 221  4.33854817E+05  qsgrsg
  1 77 227  4.33854817E+05  qsgrsg
  1 81 225  4.33854817E+05  qsgrsg
  1 80 226  4.33854817E+05  qsgrsg
  1 79 226  4.33854817E+05  qsgrsg
  1 101 217  4.33854817E+05  qsgrsg
  1 75 228  4.33854817E+05  qsgrsg
  1 82 225  4.33854817E+05  qsgrsg
  1 83 224  4.33854817E+05  qsgrsg
  1 84 224  4.33854817E+05  qsgrsg
  1 74 216  1.23673429E+05  qrhsg
  2 74 214  1.23673429E+05  qrhsg
  1 74 215  1.23673429E+05  qrhsg
  2 74 213  1.23673429E+05  qrhsg
  1 73 218  1.23673429E+05  qrhsg
  1 73 219  1.23673429E+05  qrhsg
  1 73 217  1.23673429E+05  qrhsg
  2 81 210  1.23673429E+05  qrhsg
  1 72 216  1.23673429E+05  qrhsg
  1 85 208  1.23673429E+05  qrhsg
  1 75 217  1.23673429E+05  qrhsg
  2 72 215  1.23673429E+05  qrhsg
  1 83 209  1.23673429E+05  qrhsg
  2 73 214  1.23673429E+05  qrhsg
  1 73 215  1.23673429E+05  qrhsg
  2 76 212  1.23673429E+05  qrhsg
  1 75 214  1.23673429E+05  qrhsg
  1 75 215  1.23673429E+05  qrhsg
  1 75 213  1.23673429E+05  qrhsg
  1 72 217  1.23673429E+05  qrhsg
  1 75 216  1.23673429E+05  qrhsg
  1 76 215  1.23673429E+05  qrhsg
  1 77 213  1.23673429E+05  qrhsg
  1 77 214  1.23673429E+05  qrhsg
  1 84 209  1.23673429E+05  qrhsg
  1 73 216  1.23673429E+05  qrhsg
  2 80 210  1.23673429E+05  qrhsg
  2 79 210  1.23673429E+05  qrhsg
  2 79 211  1.23673429E+05  qrhsg
  1 79 212  1.23673429E+05  qrhsg
  2 82 210  1.23673429E+05  qrhsg
  2 78 211  1.23673429E+05  qrhsg
  1 78 212  1.23673429E+05  qrhsg
  1 77 212  1.23673429E+05  qrhsg
  1 72 218  1.23673429E+05  qrhsg
  1 76 216  1.23673429E+05  qrhsg
  1 76 214  1.23673429E+05  qrhsg
  1 76 213  1.23673429E+05  qrhsg
  1 74 218  1.23673429E+05  qrhsg
  1 74 217  1.23673429E+05  qrhsg
  1 60 226  1.45617413E+05  qwnd
  1 60 227  1.45617413E+05  qwnd
  1 60 224  1.45617413E+05  qwnd
  1 60 225  1.45617413E+05  qwnd
  4 60 223  1.45617413E+05  qwnd
  1 61 225  1.45617413E+05  qwnd
  1 61 224  1.45617413E+05  qwnd
  1 61 226  1.45617413E+05  qwnd
END period  3

BEGIN period  4
  1 88 222  4.71127786E+05  qsgrsg
  1 76 227  4.71127786E+05  qsgrsg
  1 95 221  4.71127786E+05  qsgrsg
  1 78 227  4.71127786E+05  qsgrsg
  1 98 220  4.71127786E+05  qsgrsg
  1 91 221  4.71127786E+05  qsgrsg
  1 77 227  4.71127786E+05  qsgrsg
  1 81 225  4.71127786E+05  qsgrsg
  1 80 226  4.71127786E+05  qsgrsg
  1 79 226  4.71127786E+05  qsgrsg
  1 101 217  4.71127786E+05  qsgrsg
  1 75 228  4.71127786E+05  qsgrsg
  1 82 225  4.71127786E+05  qsgrsg
  1 83 224  4.71127786E+05  qsgrsg
  1 84 224  4.71127786E+05  qsgrsg
  1 74 216  2.29755893E+05  qrhsg
  2 74 214  2.29755893E+05  qrhsg
  1 74 215  2.29755893E+05  qrhsg
  2 74 213  2.29755893E+05  qrhsg
  1 73 218  2.29755893E+05  qrhsg
  1 73 219  2.29755893E+05  qrhsg
  1 73 217  2.29755893E+05  qrhsg
  2 81 210  2.29755893E+05  qrhsg
  1 72 216  2.29755893E+05  qrhsg
  1 85 208  2.29755893E+05  qrhsg
  1 75 217  2.29755893E+05  qrhsg
  2 72 215  2.29755893E+05  qrhsg
  1 83 209  2.29755893E+05  qrhsg
  2 73 214  2.29755893E+05  qrhsg
  1 73 215  2.29755893E+05  qrhsg
  2 76 212  2.29755893E+05  qrhsg
  1 75 214  2.29755893E+05  qrhsg
  1 75 215  2.29755893E+05  qrhsg
  1 75 213  2.29755893E+05  qrhsg
  1 72 217  2.29755893E+05  qrhsg
  1 75 216  2.29755893E+05  qrhsg
  1 76 215  2.29755893E+05  qrhsg
  1 77 213  2.29755893E+05  qrhsg
  1 77 214  2.29755893E+05  qrhsg
  1 84 209  2.29755893E+05  qrhsg
  1 73 216  2.29755893E+05  qrhsg
  2 80 210  2.29755893E+05  qrhsg
  2 79 210  2.29755893E+05  qrhsg
  2 79 211  2.29755893E+05  qrhsg
  1 79 212  2.29755893E+05  qrhsg
  2 82 210  2.29755893E+05  qrhsg
  2 78 211  2.29755893E+05  qrhsg
  1 78 212  2.29755893E+05  qrhsg
  1 77 212  2.29755893E+05  qrhsg
  1 72 218  2.29755893E+05  qrhsg
  1 76 216  2.29755893E+05  qrhsg
  1 76 214  2.29755893E+05  qrhsg
  1 76 213  2.29755893E+05  qrhsg
  1 74 218  2.29755893E+05  qrhsg
  1 74 217  2.29755893E+05  qrhsg
  1 60 226   99821.27310060  qwnd
  1 60 227   99821.27310060  qwnd
  1 60 224   99821.27310060  qwnd
  1 60 225   99821.27310060  qwnd
  4 60 223   99821.27310060  qwnd
  1 61 225   99821.27310060  qwnd
  1 61 224   99821.27310060  qwnd
  1 61 226   99821.27310060  qwnd
END period  4

BEGIN period  5
  1 88 222  1.99022390E+05  qsgrsg
  1 76 227  1.99022390E+05  qsgrsg
  1 95 221  1.99022390E+05  qsgrsg
  1 78 227  1.99022390E+05  qsgrsg
  1 98 220  1.99022390E+05  qsgrsg
  1 91 221  1.99022390E+05  qsgrsg
  1 77 227  1.99022390E+05  qsgrsg
  1 81 225  1.99022390E+05  qsgrsg
  1 80 226  1.99022390E+05  qsgrsg
  1 79 226  1.99022390E+05  qsgrsg
  1 101 217  1.99022390E+05  qsgrsg
  1 75 228  1.99022390E+05  qsgrsg
  1 82 225  1.99022390E+05  qsgrsg
  1 83 224  1.99022390E+05  qsgrsg
  1 84 224  1.99022390E+05  qsgrsg
  1 74 216  1.04078883E+05  qrhsg
  2 74 214  1.04078883E+05  qrhsg
  1 74 215  1.04078883E+05  qrhsg
  2 74 213  1.04078883E+05  qrhsg
  1 73 218  1.04078883E+05  qrhsg
  1 73 219  1.04078883E+05  qrhsg
  1 73 217  1.04078883E+05  qrhsg
  2 81 210  1.04078883E+05  qrhsg
  1 72 216  1.04078883E+05  qrhsg
  1 85 208  1.04078883E+05  qrhsg
  1 75 217  1.04078883E+05  qrhsg
  2 72 215  1.04078883E+05  qrhsg
  1 83 209  1.04078883E+05  qrhsg
  2 73 214  1.04078883E+05  qrhsg
  1 73 215  1.04078883E+05  qrhsg
  2 76 212  1.04078883E+05  qrhsg
  1 75 214  1.04078883E+05  qrhsg
  1 75 215  1.04078883E+05  qrhsg
  1 75 213  1.04078883E+05  qrhsg
  1 72 217  1.04078883E+05  qrhsg
  1 75 216  1.04078883E+05  qrhsg
  1 76 215  1.04078883E+05  qrhsg
  1 77 213  1.04078883E+05  qrhsg
  1 77 214  1.04078883E+05  qrhsg
  1 84 209  1.04078883E+05  qrhsg
  1 73 216  1.04078883E+05  qrhsg
  2 80 210  1.04078883E+05  qrhsg
  2 79 210  1.04078883E+05  qrhsg
  2 79 211  1.04078883E+05  qrhsg
  1 79 212  1.04078883E+05  qrhsg
  2 82 210  1.04078883E+05  qrhsg
  2 78 211  1.04078883E+05  qrhsg
  1 78 212  1.04078883E+05  qrhsg
  1 77 212  1.04078883E+05  qrhsg
  1 72 218  1.04078883E+05  qrhsg
  1 76 216  1.04078883E+05  qrhsg
  1 76 214  1.04078883E+05  qrhsg
  1 76 213  1.04078883E+05  qrhsg
  1 74 218  1.04078883E+05  qrhsg
  1 74 217  1.04078883E+05  qrhsg
  1 60 226  1.14490349E+05  qwnd
  1 60 227  1.14490349E+05  qwnd
  1 60 224  1.14490349E+05  qwnd
  1 60 225  1.14490349E+05  qwnd
  4 60 223  1.14490349E+05  qwnd
  1 61 225  1.14490349E+05  qwnd
  1 61 224  1.14490349E+05  qwnd
  1 61 226  1.14490349E+05  qwnd
END period  5

BEGIN period  6
  1 88 222   62810.67761810  qsgrsg
  1 76 227   62810.67761810  qsgrsg
  1 95 221   62810.67761810  qsgrsg
  1 78 227   62810.67761810  qsgrsg
  1 98 220   62810.67761810  qsgrsg
  1 91 221   62810.67761810  qsgrsg
  1 77 227   62810.67761810  qsgrsg
  1 81 225   62810.67761810  qsgrsg
  1 80 226   62810.67761810  qsgrsg
  1 79 226   62810.67761810  qsgrsg
  1 101 217   62810.67761810  qsgrsg
  1 75 228   62810.67761810  qsgrsg
  1 82 225   62810.67761810  qsgrsg
  1 83 224   62810.67761810  qsgrsg
  1 84 224   62810.67761810  qsgrsg
  1 74 216   34251.69609860  qrhsg
  2 74 214   34251.69609860  qrhsg
  1 74 215   34251.69609860  qrhsg
  2 74 213   34251.69609860  qrhsg
  1 73 218   34251.69609860  qrhsg
  1 73 219   34251.69609860  qrhsg
  1 73 217   34251.69609860  qrhsg
  2 81 210   34251.69609860  qrhsg
  1 72 216   34251.69609860  qrhsg
  1 85 208   34251.69609860  qrhsg
  1 75 217   34251.69609860  qrhsg
  2 72 215   34251.69609860  qrhsg
  1 83 209   34251.69609860  qrhsg
  2 73 214   34251.69609860  qrhsg
  1 73 215   34251.69609860  qrhsg
  2 76 212   34251.69609860  qrhsg
  1 75 214   34251.69609860  qrhsg
  1 75 215   34251.69609860  qrhsg
  1 75 213   34251.69609860  qrhsg
  1 72 217   34251.69609860  qrhsg
  1 75 216   34251.69609860  qrhsg
  1 76 215   34251.69609860  qrhsg
  1 77 213   34251.69609860  qrhsg
  1 77 214   34251.69609860  qrhsg
  1 84 209   34251.69609860  qrhsg
  1 73 216   34251.69609860  qrhsg
  2 80 210   34251.69609860  qrhsg
  2 79 210   34251.69609860  qrhsg
  2 79 211   34251.69609860  qrhsg
  1 79 212   34251.69609860  qrhsg
  2 82 210   34251.69609860  qrhsg
  2 78 211   34251.69609860  qrhsg
  1 78 212   34251.69609860  qrhsg
  1 77 212   34251.69609860  qrhsg
  1 72 218   34251.69609860  qrhsg
  1 76 216   34251.69609860  qrhsg
  1 76 214   34251.69609860  qrhsg
  1 76 213   34251.69609860  qrhsg
  1 74 218   34251.69609860  qrhsg
  1 74 217   34251.69609860  qrhsg
  1 60 226   91651.90965090  qwnd
  1 60 227   91651.90965090  qwnd
  1 60 224   91651.90965090  qwnd
  1 60 225   91651.90965090  qwnd
  4 60 223   91651.90965090  qwnd
  1 61 225   91651.90965090  qwnd
  1 61 224   91651.90965090  qwnd
  1 61 226   91651.90965090  qwnd
END period  6

BEGIN period  7
  1 88 222   86344.80492810  qsgrsg
  1 76 227   86344.80492810  qsgrsg
  1 95 221   86344.80492810  qsgrsg
  1 78 227   86344.80492810  qsgrsg
  1 98 220   86344.80492810  qsgrsg
  1 91 221   86344.80492810  qsgrsg
  1 77 227   86344.80492810  qsgrsg
  1 81 225   86344.80492810  qsgrsg
  1 80 226   86344.80492810  qsgrsg
  1 79 226   86344.80492810  qsgrsg
  1 101 217   86344.80492810  qsgrsg
  1 75 228   86344.80492810  qsgrsg
  1 82 225   86344.80492810  qsgrsg
  1 83 224   86344.80492810  qsgrsg
  1 84 224   86344.80492810  qsgrsg
  1 74 216   16135.98357290  qrhsg
  2 74 214   16135.98357290  qrhsg
  1 74 215   16135.98357290  qrhsg
  2 74 213   16135.98357290  qrhsg
  1 73 218   16135.98357290  qrhsg
  1 73 219   16135.98357290  qrhsg
  1 73 217   16135.98357290  qrhsg
  2 81 210   16135.98357290  qrhsg
  1 72 216   16135.98357290  qrhsg
  1 85 208   16135.98357290  qrhsg
  1 75 217   16135.98357290  qrhsg
  2 72 215   16135.98357290  qrhsg
  1 83 209   16135.98357290  qrhsg
  2 73 214   16135.98357290  qrhsg
  1 73 215   16135.98357290  qrhsg
  2 76 212   16135.98357290  qrhsg
  1 75 214   16135.98357290  qrhsg
  1 75 215   16135.98357290  qrhsg
  1 75 213   16135.98357290  qrhsg
  1 72 217   16135.98357290  qrhsg
  1 75 216   16135.98357290  qrhsg
  1 76 215   16135.98357290  qrhsg
  1 77 213   16135.98357290  qrhsg
  1 77 214   16135.98357290  qrhsg
  1 84 209   16135.98357290  qrhsg
  1 73 216   16135.98357290  qrhsg
  2 80 210   16135.98357290  qrhsg
  2 79 210   16135.98357290  qrhsg
  2 79 211   16135.98357290  qrhsg
  1 79 212   16135.98357290  qrhsg
  2 82 210   16135.98357290  qrhsg
  2 78 211   16135.98357290  qrhsg
  1 78 212   16135.98357290  qrhsg
  1 77 212   16135.98357290  qrhsg
  1 72 218   16135.98357290  qrhsg
  1 76 216   16135.98357290  qrhsg
  1 76 214   16135.98357290  qrhsg
  1 76 213   16135.98357290  qrhsg
  1 74 218   16135.98357290  qrhsg
  1 74 217   16135.98357290  qrhsg
  1 60 226   96064.55852160  qwnd
  1 60 227   96064.55852160  qwnd
  1 60 224   96064.55852160  qwnd
  1 60 225   96064.55852160  qwnd
  4 60 223   96064.55852160  qwnd
  1 61 225   96064.55852160  qwnd
  1 61 224   96064.55852160  qwnd
  1 61 226   96064.55852160  qwnd
END period  7

BEGIN period  8
  1 88 222  4.08348912E+05  qsgrsg
  1 76 227  4.08348912E+05  qsgrsg
  1 95 221  4.08348912E+05  qsgrsg
  1 78 227  4.08348912E+05  qsgrsg
  1 98 220  4.08348912E+05  qsgrsg
  1 91 221  4.08348912E+05  qsgrsg
  1 77 227  4.08348912E+05  qsgrsg
  1 81 225  4.08348912E+05  qsgrsg
  1 80 226  4.08348912E+05  qsgrsg
  1 79 226  4.08348912E+05  qsgrsg
  1 101 217  4.08348912E+05  qsgrsg
  1 75 228  4.08348912E+05  qsgrsg
  1 82 225  4.08348912E+05  qsgrsg
  1 83 224  4.08348912E+05  qsgrsg
  1 84 224  4.08348912E+05  qsgrsg
  1 74 216  1.51198817E+05  qrhsg
  2 74 214  1.51198817E+05  qrhsg
  1 74 215  1.51198817E+05  qrhsg
  2 74 213  1.51198817E+05  qrhsg
  1 73 218  1.51198817E+05  qrhsg
  1 73 219  1.51198817E+05  qrhsg
  1 73 217  1.51198817E+05  qrhsg
  2 81 210  1.51198817E+05  qrhsg
  1 72 216  1.51198817E+05  qrhsg
  1 85 208  1.51198817E+05  qrhsg
  1 75 217  1.51198817E+05  qrhsg
  2 72 215  1.51198817E+05  qrhsg
  1 83 209  1.51198817E+05  qrhsg
  2 73 214  1.51198817E+05  qrhsg
  1 73 215  1.51198817E+05  qrhsg
  2 76 212  1.51198817E+05  qrhsg
  1 75 214  1.51198817E+05  qrhsg
  1 75 215  1.51198817E+05  qrhsg
  1 75 213  1.51198817E+05  qrhsg
  1 72 217  1.51198817E+05  qrhsg
  1 75 216  1.51198817E+05  qrhsg
  1 76 215  1.51198817E+05  qrhsg
  1 77 213  1.51198817E+05  qrhsg
  1 77 214  1.51198817E+05  qrhsg
  1 84 209  1.51198817E+05  qrhsg
  1 73 216  1.51198817E+05  qrhsg
  2 80 210  1.51198817E+05  qrhsg
  2 79 210  1.51198817E+05  qrhsg
  2 79 211  1.51198817E+05  qrhsg
  1 79 212  1.51198817E+05  qrhsg
  2 82 210  1.51198817E+05  qrhsg
  2 78 211  1.51198817E+05  qrhsg
  1 78 212  1.51198817E+05  qrhsg
  1 77 212  1.51198817E+05  qrhsg
  1 72 218  1.51198817E+05  qrhsg
  1 76 216  1.51198817E+05  qrhsg
  1 76 214  1.51198817E+05  qrhsg
  1 76 213  1.51198817E+05  qrhsg
  1 74 218  1.51198817E+05  qrhsg
  1 74 217  1.51198817E+05  qrhsg
  1 60 226  1.49970431E+05  qwnd
  1 60 227  1.49970431E+05  qwnd
  1 60 224  1.49970431E+05  qwnd
  1 60 225  1.49970431E+05  qwnd
  4 60 223  1.49970431E+05  qwnd
  1 61 225  1.49970431E+05  qwnd
  1 61 224  1.49970431E+05  qwnd
  1 61 226  1.49970431E+05  qwnd
END period  8

BEGIN period  9
  1 88 222  4.06631556E+05  qsgrsg
  1 76 227  4.06631556E+05  qsgrsg
  1 95 221  4.06631556E+05  qsgrsg
  1 78 227  4.06631556E+05  qsgrsg
  1 98 220  4.06631556E+05  qsgrsg
  1 91 221  4.06631556E+05  qsgrsg
  1 77 227  4.06631556E+05  qsgrsg
  1 81 225  4.06631556E+05  qsgrsg
  1 80 226  4.06631556E+05  qsgrsg
  1 79 226  4.06631556E+05  qsgrsg
  1 101 217  4.06631556E+05  qsgrsg
  1 75 228  4.06631556E+05  qsgrsg
  1 82 225  4.06631556E+05  qsgrsg
  1 83 224  4.06631556E+05  qsgrsg
  1 84 224  4.06631556E+05  qsgrsg
  1 74 216  3.32809133E+05  qrhsg
  2 74 214  3.32809133E+05  qrhsg
  1 74 215  3.32809133E+05  qrhsg
  2 74 213  3.32809133E+05  qrhsg
  1 73 218  3.32809133E+05  qrhsg
  1 73 219  3.32809133E+05  qrhsg
  1 73 217  3.32809133E+05  qrhsg
  2 81 210  3.32809133E+05  qrhsg
  1 72 216  3.32809133E+05  qrhsg
  1 85 208  3.32809133E+05  qrhsg
  1 75 217  3.32809133E+05  qrhsg
  2 72 215  3.32809133E+05  qrhsg
  1 83 209  3.32809133E+05  qrhsg
  2 73 214  3.32809133E+05  qrhsg
  1 73 215  3.32809133E+05  qrhsg
  2 76 212  3.32809133E+05  qrhsg
  1 75 214  3.32809133E+05  qrhsg
  1 75 215  3.32809133E+05  qrhsg
  1 75 213  3.32809133E+05  qrhsg
  1 72 217  3.32809133E+05  qrhsg
  1 75 216  3.32809133E+05  qrhsg
  1 76 215  3.32809133E+05  qrhsg
  1 77 213  3.32809133E+05  qrhsg
  1 77 214  3.32809133E+05  qrhsg
  1 84 209  3.32809133E+05  qrhsg
  1 73 216  3.32809133E+05  qrhsg
  2 80 210  3.32809133E+05  qrhsg
  2 79 210  3.32809133E+05  qrhsg
  2 79 211  3.32809133E+05  qrhsg
  1 79 212  3.32809133E+05  qrhsg
  2 82 210  3.32809133E+05  qrhsg
  2 78 211  3.32809133E+05  qrhsg
  1 78 212  3.32809133E+05  qrhsg
  1 77 212  3.32809133E+05  qrhsg
  1 72 218  3.32809133E+05  qrhsg
  1 76 216  3.32809133E+05  qrhsg
  1 76 214  3.32809133E+05  qrhsg
  1 76 213  3.32809133E+05  qrhsg
  1 74 218  3.32809133E+05  qrhsg
  1 74 217  3.32809133E+05  qrhsg
  1 60 226  1.08825462E+05  qwnd
  1 60 227  1.08825462E+05  qwnd
  1 60 224  1.08825462E+05  qwnd
  1 60 225  1.08825462E+05  qwnd
  4 60 223  1.08825462E+05  qwnd
  1 61 225  1.08825462E+05  qwnd
  1 61 224  1.08825462E+05  qwnd
  1 61 226  1.08825462E+05  qwnd
END period  9

BEGIN period  10
  1 88 222  4.31087967E+05  qsgrsg
  1 76 227  4.31087967E+05  qsgrsg
  1 95 221  4.31087967E+05  qsgrsg
  1 78 227  4.31087967E+05  qsgrsg
  1 98 220  4.31087967E+05  qsgrsg
  1 91 221  4.31087967E+05  qsgrsg
  1 77 227  4.31087967E+05  qsgrsg
  1 81 225  4.31087967E+05  qsgrsg
  1 80 226  4.31087967E+05  qsgrsg
  1 79 226  4.31087967E+05  qsgrsg
  1 101 217  4.31087967E+05  qsgrsg
  1 75 228  4.31087967E+05  qsgrsg
  1 82 225  4.31087967E+05  qsgrsg
  1 83 224  4.31087967E+05  qsgrsg
  1 84 224  4.31087967E+05  qsgrsg
  1 74 216  2.70149520E+05  qrhsg
  2 74 214  2.70149520E+05  qrhsg
  1 74 215  2.70149520E+05  qrhsg
  2 74 213  2.70149520E+05  qrhsg
  1 73 218  2.70149520E+05  qrhsg
  1 73 219  2.70149520E+05  qrhsg
  1 73 217  2.70149520E+05  qrhsg
  2 81 210  2.70149520E+05  qrhsg
  1 72 216  2.70149520E+05  qrhsg
  1 85 208  2.70149520E+05  qrhsg
  1 75 217  2.70149520E+05  qrhsg
  2 72 215  2.70149520E+05  qrhsg
  1 83 209  2.70149520E+05  qrhsg
  2 73 214  2.70149520E+05  qrhsg
  1 73 215  2.70149520E+05  qrhsg
  2 76 212  2.70149520E+05  qrhsg
  1 75 214  2.70149520E+05  qrhsg
  1 75 215  2.70149520E+05  qrhsg
  1 75 213  2.70149520E+05  qrhsg
  1 72 217  2.70149520E+05  qrhsg
  1 75 216  2.70149520E+05  qrhsg
  1 76 215  2.70149520E+05  qrhsg
  1 77 213  2.70149520E+05  qrhsg
  1 77 214  2.70149520E+05  qrhsg
  1 84 209  2.70149520E+05  qrhsg
  1 73 216  2.70149520E+05  qrhsg
  2 80 210  2.70149520E+05  qrhsg
  2 79 210  2.70149520E+05  qrhsg
  2 79 211  2.70149520E+05  qrhsg
  1 79 212  2.70149520E+05  qrhsg
  2 82 210  2.70149520E+05  qrhsg
  2 78 211  2.70149520E+05  qrhsg
  1 78 212  2.70149520E+05  qrhsg
  1 77 212  2.70149520E+05  qrhsg
  1 72 218  2.70149520E+05  qrhsg
  1 76 216  2.70149520E+05  qrhsg
  1 76 214  2.70149520E+05  qrhsg
  1 76 213  2.70149520E+05  qrhsg
  1 74 218  2.70149520E+05  qrhsg
  1 74 217  2.70149520E+05  qrhsg
  1 60 226  1.95051006E+05  qwnd
  1 60 227  1.95051006E+05  qwnd
  1 60 224  1.95051006E+05  qwnd
  1 60 225  1.95051006E+05  qwnd
  4 60 223  1.95051006E+05  qwnd
  1 61 225  1.95051006E+05  qwnd
  1 61 224  1.95051006E+05  qwnd
  1 61 226  1.95051006E+05  qwnd
END period  10

BEGIN period  11
  1 88 222  4.90559343E+05  qsgrsg
  1 76 227  4.90559343E+05  qsgrsg
  1 95 221  4.90559343E+05  qsgrsg
  1 78 227  4.90559343E+05  qsgrsg
  1 98 220  4.90559343E+05  qsgrsg
  1 91 221  4.90559343E+05  qsgrsg
  1 77 227  4.90559343E+05  qsgrsg
  1 81 225  4.90559343E+05  qsgrsg
  1 80 226  4.90559343E+05  qsgrsg
  1 79 226  4.90559343E+05  qsgrsg
  1 101 217  4.90559343E+05  qsgrsg
  1 75 228  4.90559343E+05  qsgrsg
  1 82 225  4.90559343E+05  qsgrsg
  1 83 224  4.90559343E+05  qsgrsg
  1 84 224  4.90559343E+05  qsgrsg
  1 74 216  1.67322875E+05  qrhsg
  2 74 214  1.67322875E+05  qrhsg
  1 74 215  1.67322875E+05  qrhsg
  2 74 213  1.67322875E+05  qrhsg
  1 73 218  1.67322875E+05  qrhsg
  1 73 219  1.67322875E+05  qrhsg
  1 73 217  1.67322875E+05  qrhsg
  2 81 210  1.67322875E+05  qrhsg
  1 72 216  1.67322875E+05  qrhsg
  1 85 208  1.67322875E+05  qrhsg
  1 75 217  1.67322875E+05  qrhsg
  2 72 215  1.67322875E+05  qrhsg
  1 83 209  1.67322875E+05  qrhsg
  2 73 214  1.67322875E+05  qrhsg
  1 73 215  1.67322875E+05  qrhsg
  2 76 212  1.67322875E+05  qrhsg
  1 75 214  1.67322875E+05  qrhsg
  1 75 215  1.67322875E+05  qrhsg
  1 75 213  1.67322875E+05  qrhsg
  1 72 217  1.67322875E+05  qrhsg
  1 75 216  1.67322875E+05  qrhsg
  1 76 215  1.67322875E+05  qrhsg
  1 77 213  1.67322875E+05  qrhsg
  1 77 214  1.67322875E+05  qrhsg
  1 84 209  1.67322875E+05  qrhsg
  1 73 216  1.67322875E+05  qrhsg
  2 80 210  1.67322875E+05  qrhsg
  2 79 210  1.67322875E+05  qrhsg
  2 79 211  1.67322875E+05  qrhsg
  1 79 212  1.67322875E+05  qrhsg
  2 82 210  1.67322875E+05  qrhsg
  2 78 211  1.67322875E+05  qrhsg
  1 78 212  1.67322875E+05  qrhsg
  1 77 212  1.67322875E+05  qrhsg
  1 72 218  1.67322875E+05  qrhsg
  1 76 216  1.67322875E+05  qrhsg
  1 76 214  1.67322875E+05  qrhsg
  1 76 213  1.67322875E+05  qrhsg
  1 74 218  1.67322875E+05  qrhsg
  1 74 217  1.67322875E+05  qrhsg
  1 60 226  4.85033593E+05  qwnd
  1 60 227  4.85033593E+05  qwnd
  1 60 224  4.85033593E+05  qwnd
  1 60 225  4.85033593E+05  qwnd
  4 60 223  4.85033593E+05  qwnd
  1 61 225  4.85033593E+05  qwnd
  1 61 224  4.85033593E+05  qwnd
  1 61 226  4.85033593E+05  qwnd
END period  11

BEGIN period  12
  1 88 222  4.72177281E+05  qsgrsg
  1 76 227  4.72177281E+05  qsgrsg
  1 95 221  4.72177281E+05  qsgrsg
  1 78 227  4.72177281E+05  qsgrsg
  1 98 220  4.72177281E+05  qsgrsg
  1 91 221  4.72177281E+05  qsgrsg
  1 77 227  4.72177281E+05  qsgrsg
  1 81 225  4.72177281E+05  qsgrsg
  1 80 226  4.72177281E+05  qsgrsg
  1 79 226  4.72177281E+05  qsgrsg
  1 101 217  4.72177281E+05  qsgrsg
  1 75 228  4.72177281E+05  qsgrsg
  1 82 225  4.72177281E+05  qsgrsg
  1 83 224  4.72177281E+05  qsgrsg
  1 84 224  4.72177281E+05  qsgrsg
  1 74 216  2.33631869E+05  qrhsg
  2 74 214  2.33631869E+05  qrhsg
  1 74 215  2.33631869E+05  qrhsg
  2 74 213  2.33631869E+05  qrhsg
  1 73 218  2.33631869E+05  qrhsg
  1 73 219  2.33631869E+05  qrhsg
  1 73 217  2.33631869E+05  qrhsg
  2 81 210  2.33631869E+05  qrhsg
  1 72 216  2.33631869E+05  qrhsg
  1 85 208  2.33631869E+05  qrhsg
  1 75 217  2.33631869E+05  qrhsg
  2 72 215  2.33631869E+05  qrhsg
  1 83 209  2.33631869E+05  qrhsg
  2 73 214  2.33631869E+05  qrhsg
  1 73 215  2.33631869E+05  qrhsg
  2 76 212  2.33631869E+05  qrhsg
  1 75 214  2.33631869E+05  qrhsg
  1 75 215  2.33631869E+05  qrhsg
  1 75 213  2.33631869E+05  qrhsg
  1 72 217  2.33631869E+05  qrhsg
  1 75 216  2.33631869E+05  qrhsg
  1 76 215  2.33631869E+05  qrhsg
  1 77 213  2.33631869E+05  qrhsg
  1 77 214  2.33631869E+05  qrhsg
  1 84 209  2.33631869E+05  qrhsg
  1 73 216  2.33631869E+05  qrhsg
  2 80 210  2.33631869E+05  qrhsg
  2 79 210  2.33631869E+05  qrhsg
  2 79 211  2.33631869E+05  qrhsg
  1 79 212  2.33631869E+05  qrhsg
  2 82 210  2.33631869E+05  qrhsg
  2 78 211  2.33631869E+05  qrhsg
  1 78 212  2.33631869E+05  qrhsg
  1 77 212  2.33631869E+05  qrhsg
  1 72 218  2.33631869E+05  qrhsg
  1 76 216  2.33631869E+05  qrhsg
  1 76 214  2.33631869E+05  qrhsg
  1 76 213  2.33631869E+05  qrhsg
  1 74 218  2.33631869E+05  qrhsg
  1 74 217  2.33631869E+05  qrhsg
  1 60 226  1.59392033E+05  qwnd
  1 60 227  1.59392033E+05  qwnd
  1 60 224  1.59392033E+05  qwnd
  1 60 225  1.59392033E+05  qwnd
  4 60 223  1.59392033E+05  qwnd
  1 61 225  1.59392033E+05  qwnd
  1 61 224  1.59392033E+05  qwnd
  1 61 226  1.59392033E+05  qwnd
END period  12

BEGIN period  13
  1 88 222  4.31342390E+05  qsgrsg
  1 76 227  4.31342390E+05  qsgrsg
  1 95 221  4.31342390E+05  qsgrsg
  1 78 227  4.31342390E+05  qsgrsg
  1 98 220  4.31342390E+05  qsgrsg
  1 91 221  4.31342390E+05  qsgrsg
  1 77 227  4.31342390E+05  qsgrsg
  1 81 225  4.31342390E+05  qsgrsg
  1 80 226  4.31342390E+05  qsgrsg
  1 79 226  4.31342390E+05  qsgrsg
  1 101 217  4.31342390E+05  qsgrsg
  1 75 228  4.31342390E+05  qsgrsg
  1 82 225  4.31342390E+05  qsgrsg
  1 83 224  4.31342390E+05  qsgrsg
  1 84 224  4.31342390E+05  qsgrsg
  1 74 216  2.60668287E+05  qrhsg
  2 74 214  2.60668287E+05  qrhsg
  1 74 215  2.60668287E+05  qrhsg
  2 74 213  2.60668287E+05  qrhsg
  1 73 218  2.60668287E+05  qrhsg
  1 73 219  2.60668287E+05  qrhsg
  1 73 217  2.60668287E+05  qrhsg
  2 81 210  2.60668287E+05  qrhsg
  1 72 216  2.60668287E+05  qrhsg
  1 85 208  2.60668287E+05  qrhsg
  1 75 217  2.60668287E+05  qrhsg
  2 72 215  2.60668287E+05  qrhsg
  1 83 209  2.60668287E+05  qrhsg
  2 73 214  2.60668287E+05  qrhsg
  1 73 215  2.60668287E+05  qrhsg
  2 76 212  2.60668287E+05  qrhsg
  1 75 214  2.60668287E+05  qrhsg
  1 75 215  2.60668287E+05  qrhsg
  1 75 213  2.60668287E+05  qrhsg
  1 72 217  2.60668287E+05  qrhsg
  1 75 216  2.60668287E+05  qrhsg
  1 76 215  2.60668287E+05  qrhsg
  1 77 213  2.60668287E+05  qrhsg
  1 77 214  2.60668287E+05  qrhsg
  1 84 209  2.60668287E+05  qrhsg
  1 73 216  2.60668287E+05  qrhsg
  2 80 210  2.60668287E+05  qrhsg
  2 79 210  2.60668287E+05  qrhsg
  2 79 211  2.60668287E+05  qrhsg
  1 79 212  2.60668287E+05  qrhsg
  2 82 210  2.60668287E+05  qrhsg
  2 78 211  2.60668287E+05  qrhsg
  1 78 212  2.60668287E+05  qrhsg
  1 77 212  2.60668287E+05  qrhsg
  1 72 218  2.60668287E+05  qrhsg
  1 76 216  2.60668287E+05  qrhsg
  1 76 214  2.60668287E+05  qrhsg
  1 76 213  2.60668287E+05  qrhsg
  1 74 218  2.60668287E+05  qrhsg
  1 74 217  2.60668287E+05  qrhsg
  1 60 226  1.20870801E+05  qwnd
  1 60 227  1.20870801E+05  qwnd
  1 60 224  1.20870801E+05  qwnd
  1 60 225  1.20870801E+05  qwnd
  4 60 223  1.20870801E+05  qwnd
  1 61 225  1.20870801E+05  qwnd
  1 61 224  1.20870801E+05  qwnd
  1 61 226  1.20870801E+05  qwnd
END period  13

BEGIN period  14
  1 88 222  3.75146710E+05  qsgrsg
  1 76 227  3.75146710E+05  qsgrsg
  1 95 221  3.75146710E+05  qsgrsg
  1 78 227  3.75146710E+05  qsgrsg
  1 98 220  3.75146710E+05  qsgrsg
  1 91 221  3.75146710E+05  qsgrsg
  1 77 227  3.75146710E+05  qsgrsg
  1 81 225  3.75146710E+05  qsgrsg
  1 80 226  3.75146710E+05  qsgrsg
  1 79 226  3.75146710E+05  qsgrsg
  1 101 217  3.75146710E+05  qsgrsg
  1 75 228  3.75146710E+05  qsgrsg
  1 82 225  3.75146710E+05  qsgrsg
  1 83 224  3.75146710E+05  qsgrsg
  1 84 224  3.75146710E+05  qsgrsg
  1 74 216  2.02731400E+05  qrhsg
  2 74 214  2.02731400E+05  qrhsg
  1 74 215  2.02731400E+05  qrhsg
  2 74 213  2.02731400E+05  qrhsg
  1 73 218  2.02731400E+05  qrhsg
  1 73 219  2.02731400E+05  qrhsg
  1 73 217  2.02731400E+05  qrhsg
  2 81 210  2.02731400E+05  qrhsg
  1 72 216  2.02731400E+05  qrhsg
  1 85 208  2.02731400E+05  qrhsg
  1 75 217  2.02731400E+05  qrhsg
  2 72 215  2.02731400E+05  qrhsg
  1 83 209  2.02731400E+05  qrhsg
  2 73 214  2.02731400E+05  qrhsg
  1 73 215  2.02731400E+05  qrhsg
  2 76 212  2.02731400E+05  qrhsg
  1 75 214  2.02731400E+05  qrhsg
  1 75 215  2.02731400E+05  qrhsg
  1 75 213  2.02731400E+05  qrhsg
  1 72 217  2.02731400E+05  qrhsg
  1 75 216  2.02731400E+05  qrhsg
  1 76 215  2.02731400E+05  qrhsg