BEGIN options
  BOUNDNAMES
  SAVE_FLOWS
  OBS6  FILEIN  ..\external_files\lab_model.drn.obs
END options

BEGIN dimensions
  MAXBOUND  815
END dimensions

BEGIN period  1
  12 56 229     230.00000000  1.00000000E+06  wnd
  1 57 228     230.00000000  1.00000000E+06  wnd
  1 57 229     230.00000000  1.00000000E+06  wnd
  1 57 230     230.00000000  1.00000000E+06  wnd
  1 58 229     230.00000000  1.00000000E+06  wnd
  1 59 229     230.00000000  1.00000000E+06  wnd
  1 58 228     230.00000000  1.00000000E+06  wnd
  1 59 228     230.00000000  1.00000000E+06  wnd
  1 58 227     230.00000000  1.00000000E+06  wnd
  1 59 227     230.00000000  1.00000000E+06  wnd
  1 58 226     230.00000000  1.00000000E+06  wnd
  1 59 226     230.00000000  1.00000000E+06  wnd
  1 58 225     230.00000000  1.00000000E+06  wnd
  1 59 225     230.00000000  1.00000000E+06  wnd
  1 60 224     230.00000000  1.00000000E+06  wnd
  1 60 225     230.00000000  1.00000000E+06  wnd
  1 60 226     230.00000000  1.00000000E+06  wnd
  1 60 227     230.00000000  1.00000000E+06  wnd
  2 24 110     270.00000000  1.00000000E+06  wnd
  2 23 110     278.00000000  1.00000000E+06  wnd
  2 22 111     285.00000000  1.00000000E+06  wnd
  1 59 225     230.00000000  1.00000000E+06  wnd
  1 60 224     230.00000000  1.00000000E+06  wnd
  1 60 225     230.00000000  1.00000000E+06  wnd
  1 60 226     230.00000000  1.00000000E+06  wnd
  4 61 223     230.00000000  1.00000000E+06  wnd
  1 61 224     230.00000000  1.00000000E+06  wnd
  1 61 225     230.00000000  1.00000000E+06  wnd
  1 61 226     230.00000000  1.00000000E+06  wnd
  4 59 223     230.00000000  1.00000000E+06  wnd
  1 59 224     230.00000000  1.00000000E+06  wnd
  4 60 223     230.00000000  1.00000000E+06  wnd
  2 62 223     169.00000000  1.00000000E+06  wnd
  2 62 222     165.00000000  1.00000000E+06  wnd
  2 110 106      65.00000000  100000.00000000  dominguez_channel
  2 111 107      62.00000000  100000.00000000  dominguez_channel
  2 112 107      59.00000000  100000.00000000  dominguez_channel
  2 112 108      56.00000000  100000.00000000  dominguez_channel
  2 112 109      53.00000000  100000.00000000  dominguez_channel
  2 112 110      52.00000000  100000.00000000  dominguez_channel
  2 112 111      52.00000000  100000.00000000  dominguez_channel
  2 113 112      52.00000000  100000.00000000  dominguez_channel
  2 114 112      51.00000000  100000.00000000  dominguez_channel
  2 115 112      51.00000000  100000.00000000  dominguez_channel
  2 116 112      51.00000000  100000.00000000  dominguez_channel
  2 117 112      49.00000000  100000.00000000  dominguez_channel
  2 118 112      47.00000000  100000.00000000  dominguez_channel
  2 119 112      45.00000000  100000.00000000  dominguez_channel
  2 120 112      43.00000000  100000.00000000  dominguez_channel
  2 121 112      42.00000000  100000.00000000  dominguez_channel
  2 122 112      42.00000000  100000.00000000  dominguez_channel
  2 123 112      41.00000000  100000.00000000  dominguez_channel
  2 124 112      39.00000000  100000.00000000  dominguez_channel
  2 125 111      37.00000000  100000.00000000  dominguez_channel
  2 126 110      36.00000000  100000.00000000  dominguez_channel
  2 127 109      36.00000000  100000.00000000  dominguez_channel
  2 128 108      35.00000000  100000.00000000  dominguez_channel
  2 129 108      35.00000000  100000.00000000  dominguez_channel
  2 130 108      34.00000000  100000.00000000  dominguez_channel
  2 131 107      33.00000000  100000.00000000  dominguez_channel
  2 132 107      33.00000000  100000.00000000  dominguez_channel
  2 133 107      32.00000000  100000.00000000  dominguez_channel
  2 134 108      32.00000000  100000.00000000  dominguez_channel
  2 135 108      31.00000000  100000.00000000  dominguez_channel
  2 136 109      30.00000000  100000.00000000  dominguez_channel
  2 137 110      29.00000000  100000.00000000  dominguez_channel
  2 137 111      28.00000000  100000.00000000  dominguez_channel
  2 137 112      27.00000000  100000.00000000  dominguez_channel
  2 137 113      26.00000000  100000.00000000  dominguez_channel
  2 138 114      25.00000000  100000.00000000  dominguez_channel
  2 138 115      24.00000000  100000.00000000  dominguez_channel
  2 138 116      23.00000000  100000.00000000  dominguez_channel
  2 138 117      22.00000000  100000.00000000  dominguez_channel
  2 139 118      21.00000000  100000.00000000  dominguez_channel
  2 140 118      21.00000000  100000.00000000  dominguez_channel
  2 141 118      20.00000000  100000.00000000  dominguez_channel
  2 142 119      20.00000000  100000.00000000  dominguez_channel
  2 142 120      19.00000000  100000.00000000  dominguez_channel
  2 142 121      19.00000000  100000.00000000  dominguez_channel
  2 142 122      19.00000000  100000.00000000  dominguez_channel
  2 142 123      18.00000000  100000.00000000  dominguez_channel
  2 142 124      18.00000000  100000.00000000  dominguez_channel
  2 142 125      18.00000000  100000.00000000  dominguez_channel
  2 142 126      18.00000000  100000.00000000  dominguez_channel
  2 142 127      17.00000000  100000.00000000  dominguez_channel
  2 142 128      17.00000000  100000.00000000  dominguez_channel
  2 143 128      17.00000000  100000.00000000  dominguez_channel
  2 144 129      17.00000000  100000.00000000  dominguez_channel
  2 145 129      16.00000000  100000.00000000  dominguez_channel
  2 146 129      16.00000000  100000.00000000  dominguez_channel
  2 147 130      16.00000000  100000.00000000  dominguez_channel
  2 148 131      16.00000000  100000.00000000  dominguez_channel
  2 149 132      15.00000000  100000.00000000  dominguez_channel
  2 150 132      14.00000000  100000.00000000  dominguez_channel
  2 151 133      13.00000000  100000.00000000  dominguez_channel
  2 152 134      12.00000000  100000.00000000  dominguez_channel
  2 153 135      12.00000000  100000.00000000  dominguez_channel
  2 154 136      11.00000000  100000.00000000  dominguez_channel
  2 155 137      11.00000000  100000.00000000  dominguez_channel
  2 156 138      10.00000000  100000.00000000  dominguez_channel
  1 157 139      10.00000000  100000.00000000  dominguez_channel
  2 158 139       9.00000000  100000.00000000  dominguez_channel
  2 159 140       9.00000000  100000.00000000  dominguez_channel
  1 160 141       8.00000000  100000.00000000  dominguez_channel
  1 161 142       8.00000000  100000.00000000  dominguez_channel
  1 162 143       8.00000000  100000.00000000  dominguez_channel
  2 163 143       8.00000000  100000.00000000  dominguez_channel
  2 164 144       8.00000000  100000.00000000  dominguez_channel
  2 165 145       8.00000000  100000.00000000  dominguez_channel
  2 166 146       8.00000000  100000.00000000  dominguez_channel
  2 167 147       7.00000000  100000.00000000  dominguez_channel
  2 167 148       7.00000000  100000.00000000  dominguez_channel
  2 168 149       7.00000000  100000.00000000  dominguez_channel
  2 168 150       7.00000000  100000.00000000  dominguez_channel
  2 169 150       7.00000000  100000.00000000  dominguez_channel
  2 170 150       7.00000000  100000.00000000  dominguez_channel
  2 171 150       7.00000000  100000.00000000  dominguez_channel
  2 172 151       7.00000000  100000.00000000  dominguez_channel
  2 173 152       7.00000000  100000.00000000  dominguez_channel
  2 173 153       7.00000000  100000.00000000  dominguez_channel
  2 173 154       7.00000000  100000.00000000  dominguez_channel
  2 173 155       6.00000000  100000.00000000  dominguez_channel
  2 174 155       6.00000000  100000.00000000  dominguez_channel
  2 175 156       6.00000000  100000.00000000  dominguez_channel
  2 176 156       6.00000000  100000.00000000  dominguez_channel
  2 177 156       6.00000000  100000.00000000  dominguez_channel
  2 178 156       6.00000000  100000.00000000  dominguez_channel
  2 179 156       6.00000000  100000.00000000  dominguez_channel
  2 180 156       6.00000000  100000.00000000  dominguez_channel
  1 181 156      32.46167296  100000.00000000  dominguez_channel
  1 183 156       6.00000000  100000.00000000  dominguez_channel
  1 184 155       6.00000000  100000.00000000  dominguez_channel
  1 185 155       6.00000000  100000.00000000  dominguez_channel
  2 186 154       5.00000000  100000.00000000  dominguez_channel
  1 187 154       5.00000000  100000.00000000  dominguez_channel
  1 188 153       5.00000000  100000.00000000  dominguez_channel
  1 189 153       5.00000000  100000.00000000  dominguez_channel
  1 190 152       4.00000000  100000.00000000  dominguez_channel
  1 191 151       4.00000000  100000.00000000  dominguez_channel
  1 192 151       4.00000000  100000.00000000  dominguez_channel
  1 193 150       3.00000000  100000.00000000  dominguez_channel
  2 161 120      26.00000000  100000.00000000  domenguez_canal
  2 161 121      25.00000000  100000.00000000  domenguez_canal
  2 161 122      24.00000000  100000.00000000  domenguez_canal
  2 161 123      24.00000000  100000.00000000  domenguez_canal
  2 161 124      23.00000000  100000.00000000  domenguez_canal
  2 161 125      22.00000000  100000.00000000  domenguez_canal
  2 161 126      21.00000000  100000.00000000  domenguez_canal
  2 161 127      20.00000000  100000.00000000  domenguez_canal
  2 160 127      19.00000000  100000.00000000  domenguez_canal
  2 159 127      18.00000000  100000.00000000  domenguez_canal
  2 158 128      16.00000000  100000.00000000  domenguez_canal
  2 157 128      14.00000000  100000.00000000  domenguez_canal
  2 157 129      14.00000000  100000.00000000  domenguez_canal
  2 157 130      13.00000000  100000.00000000  domenguez_canal
  2 157 131      13.00000000  100000.00000000  domenguez_canal
  2 157 132      13.00000000  100000.00000000  domenguez_canal
  2 157 133      12.00000000  100000.00000000  domenguez_canal
  2 157 134      12.00000000  100000.00000000  domenguez_canal
  2 158 134      11.00000000  100000.00000000  domenguez_canal
  2 159 135      11.00000000  100000.00000000  domenguez_canal
  2 159 136      11.00000000  100000.00000000  domenguez_canal
  2 159 137      10.00000000  100000.00000000  domenguez_canal
  2 159 138      10.00000000  100000.00000000  domenguez_canal
  2 159 139      10.00000000  100000.00000000  domenguez_canal
  1 150 192      41.00000000  100000.00000000  san_gabriel_canal
  1 151 192      41.00000000  100000.00000000  san_gabriel_canal
  1 152 192      41.00000000  100000.00000000  san_gabriel_canal
  1 153 192      41.00000000  100000.00000000  san_gabriel_canal
  1 154 192      41.00000000  100000.00000000  san_gabriel_canal
  1 155 192      40.00000000  100000.00000000  san_gabriel_canal
  2 156 192      40.00000000  100000.00000000  san_gabriel_canal
  2 156 193      40.00000000  100000.00000000  san_gabriel_canal
  2 156 194      40.00000000  100000.00000000  san_gabriel_canal
  2 156 195      40.00000000  100000.00000000  san_gabriel_canal
  2 156 196      39.00000000  100000.00000000  san_gabriel_canal
  1 156 197      39.00000000  100000.00000000  san_gabriel_canal
  1 156 198      39.00000000  100000.00000000  san_gabriel_canal
  1 156 199      39.00000000  100000.00000000  san_gabriel_canal
  1 156 200      38.00000000  100000.00000000  san_gabriel_canal
  1 144 200      44.00000000  100000.00000000  gabriel_canal_2
  1 145 200      44.00000000  100000.00000000  gabriel_canal_2
  1 146 200      44.00000000  100000.00000000  gabriel_canal_2
  1 147 200      43.00000000  100000.00000000  gabriel_canal_2
  1 148 200      43.00000000  100000.00000000  gabriel_canal_2
  1 149 200      42.00000000  100000.00000000  gabriel_canal_2
  1 150 200      42.00000000  100000.00000000  gabriel_canal_2
  1 151 200      41.00000000  100000.00000000  gabriel_canal_2
  1 152 200      41.00000000  100000.00000000  gabriel_canal_2
  1 153 200      40.00000000  100000.00000000  gabriel_canal_2
  1 154 200      40.00000000  100000.00000000  gabriel_canal_2
  1 155 218      39.00000000  100000.00000000  gabriel_canal_2
  1 157 200      38.00000000  100000.00000000  gabriel_canal_2
  1 158 200      37.00000000  100000.00000000  gabriel_canal_2
  1 159 200      36.00000000  100000.00000000  gabriel_canal_2
  1 160 200      34.00000000  100000.00000000  gabriel_canal_2
  1 161 200      32.00000000  100000.00000000  gabriel_canal_2
  1 162 200      30.00000000  100000.00000000  gabriel_canal_2
  1 163 200      29.00000000  100000.00000000  gabriel_canal_2
  1 164 200      28.00000000  100000.00000000  gabriel_canal_2
  1 165 201      27.00000000  100000.00000000  gabriel_canal_2
  1 166 201      26.00000000  100000.00000000  gabriel_canal_2
  1 167 201      25.00000000  100000.00000000  gabriel_canal_2
  1 168 201      24.00000000  100000.00000000  gabriel_canal_2
  1 169 201      23.00000000  100000.00000000  gabriel_canal_2
  1 170 201      22.00000000  100000.00000000  gabriel_canal_2
  1 171 201      21.00000000  100000.00000000  gabriel_canal_2
  1 172 201      20.00000000  100000.00000000  gabriel_canal_2
  1 173 201      19.00000000  100000.00000000  gabriel_canal_2
  1 174 201      18.00000000  100000.00000000  gabriel_canal_2
  1 175 201      17.00000000  100000.00000000  gabriel_canal_2
  1 176 201      16.00000000  100000.00000000  gabriel_canal_2
  1 176 202      16.00000000  100000.00000000  gabriel_canal_2
  1 176 203      16.00000000  100000.00000000  gabriel_canal_2
  1 176 204      16.00000000  100000.00000000  gabriel_canal_2
  1 176 205      16.00000000  100000.00000000  gabriel_canal_2
  1 176 206      16.00000000  100000.00000000  gabriel_canal_2
  1 176 207      16.00000000  100000.00000000  gabriel_canal_2
  1 177 208      16.00000000  100000.00000000  gabriel_canal_2
  1 178 208      14.00000000  100000.00000000  gabriel_canal_2
  1 179 209      12.00000000  100000.00000000  gabriel_canal_2
  1 180 210      10.00000000  100000.00000000  gabriel_canal_2
  1 181 211       8.00000000  100000.00000000  gabriel_canal_2
  1 181 212       6.00000000  100000.00000000  gabriel_canal_2
  1 182 213       5.00000000  100000.00000000  gabriel_canal_2
  1 183 213       5.00000000  100000.00000000  gabriel_canal_2
  1 184 213       5.00000000  100000.00000000  gabriel_canal_2
  1 185 213       5.00000000  100000.00000000  gabriel_canal_2
  1 186 213       5.00000000  100000.00000000  gabriel_canal_2
  1 187 213       5.00000000  100000.00000000  gabriel_canal_2
  1 188 213       4.00000000  100000.00000000  gabriel_canal_2
  1 189 213       4.00000000  100000.00000000  gabriel_canal_2
  1 190 213       4.00000000  100000.00000000  gabriel_canal_2
  1 191 213       4.00000000  100000.00000000  gabriel_canal_2
  1 192 213       4.00000000  100000.00000000  gabriel_canal_2
  1 193 213       3.00000000  100000.00000000  gabriel_canal_2
  2 194 213       3.00000000  100000.00000000  gabriel_canal_2
  2 195 213       3.00000000  100000.00000000  gabriel_canal_2
  2 196 213       3.00000000  100000.00000000  gabriel_canal_2
  2 197 213       3.00000000  100000.00000000  gabriel_canal_2
  2 198 213       2.00000000  100000.00000000  gabriel_canal_2
  2 199 213       2.00000000  100000.00000000  gabriel_canal_2
  2 200 213       2.00000000  100000.00000000  gabriel_canal_2
  2 201 213       2.00000000  100000.00000000  gabriel_canal_2
  1 201 214       2.00000000  100000.00000000  gabriel_canal_2
  1 202 215       2.00000000  100000.00000000  gabriel_canal_2
  1 64 234     171.00000000     650.00000000  san_gabriel
  1 65 233     171.00000000     650.00000000  san_gabriel
  1 66 232     170.00000000     650.00000000  san_gabriel
  1 67 231     170.00000000     650.00000000  san_gabriel
  1 69 230     169.00000000     650.00000000  san_gabriel
  1 70 230     171.05812091     650.00000000  san_gabriel
  1 71 230     175.45885927  100000.00000000  san_gabriel
  2 72 230     168.00000000  100000.00000000  san_gabriel
  1 73 229     167.00000000  100000.00000000  san_gabriel
  2 74 229     167.00000000  100000.00000000  san_gabriel
  2 75 229     166.00000000  100000.00000000  san_gabriel
  2 76 228     166.00000000  100000.00000000  san_gabriel
  1 77 228     165.00000000  100000.00000000  san_gabriel
  1 78 227     163.00000000  100000.00000000  san_gabriel
  1 79 227     161.00000000  100000.00000000  san_gabriel
  1 80 227     157.00000000  100000.00000000  san_gabriel
  1 81 226     154.00000000  100000.00000000  san_gabriel
  1 82 226     152.00000000  100000.00000000  san_gabriel
  1 83 225     150.00000000  100000.00000000  san_gabriel
  1 84 224     149.00000000  100000.00000000  san_gabriel
  1 85 224     148.00000000  100000.00000000  san_gabriel
  1 86 223     147.00000000  100000.00000000  san_gabriel
  1 87 222     146.00000000  100000.00000000  san_gabriel
  1 88 222     146.00000000  100000.00000000  san_gabriel
  1 89 221     145.00000000  100000.00000000  san_gabriel
  1 90 221     145.00000000  100000.00000000  san_gabriel
  1 91 221     144.00000000  100000.00000000  san_gabriel
  1 92 221     144.00000000  100000.00000000  san_gabriel
  1 93 222     140.00000000  100000.00000000  san_gabriel
  1 94 221     136.00000000  100000.00000000  san_gabriel
  1 95 221     134.00000000  100000.00000000  san_gabriel
  1 96 221     132.00000000  100000.00000000  san_gabriel
  1 98 219     130.00000000  100000.00000000  san_gabriel
  1 99 218     128.00000000  100000.00000000  san_gabriel
  1 100 218     127.00000000  100000.00000000  san_gabriel
  1 101 217     126.00000000  100000.00000000  san_gabriel
  1 102 216     122.00000000  100000.00000000  san_gabriel
  1 103 216     118.00000000  100000.00000000  san_gabriel
  1 104 216     117.00000000  100000.00000000  san_gabriel
  1 105 216     116.00000000  100000.00000000  san_gabriel
  1 106 215     115.00000000  100000.00000000  san_gabriel
  1 107 214     114.00000000  100000.00000000  san_gabriel
  1 108 213     113.00000000  100000.00000000  san_gabriel
  1 109 213     113.00000000  100000.00000000  san_gabriel
  1 110 212     112.00000000  100000.00000000  san_gabriel
  1 111 212     111.00000000  100000.00000000  san_gabriel
  1 112 211     105.00000000  100000.00000000  san_gabriel
  1 113 211     101.00000000  100000.00000000  san_gabriel
  1 114 210     100.00000000  100000.00000000  san_gabriel
  1 115 210      99.00000000  100000.00000000  san_gabriel
  1 116 210      99.00000000  100000.00000000  san_gabriel
  1 117 210      98.00000000  100000.00000000  san_gabriel
  1 118 210      98.00000000  100000.00000000  san_gabriel
  1 119 211      97.00000000  100000.00000000  san_gabriel
  1 120 211      94.00000000  100000.00000000  san_gabriel
  1 121 211      92.00000000  100000.00000000  san_gabriel
  1 122 211      90.00000000  100000.00000000  san_gabriel
  1 123 211      88.00000000  100000.00000000  san_gabriel
  1 124 211      85.00000000  100000.00000000  san_gabriel
  1 125 212      82.00000000  100000.00000000  san_gabriel
  1 126 212      80.00000000  100000.00000000  san_gabriel
  1 127 212      78.00000000  100000.00000000  san_gabriel
  1 128 212      78.00000000  100000.00000000  san_gabriel
  1 129 212      78.00000000  100000.00000000  san_gabriel
  1 130 212      78.00000000  100000.00000000  san_gabriel
  1 131 212      77.00000000  100000.00000000  san_gabriel
  1 132 212      77.00000000  100000.00000000  san_gabriel
  1 133 212      77.00000000  100000.00000000  san_gabriel
  1 134 212      76.00000000  100000.00000000  san_gabriel
  1 135 212      76.00000000  100000.00000000  san_gabriel
  1 136 212      75.00000000  100000.00000000  san_gabriel
  1 137 212      73.00000000  100000.00000000  san_gabriel
  1 138 212      71.00000000  100000.00000000  san_gabriel
  1 139 212      69.00000000  100000.00000000  san_gabriel
  1 140 212      67.00000000  100000.00000000  san_gabriel
  1 141 212      64.00000000  100000.00000000  san_gabriel
  1 142 212      62.00000000  100000.00000000  san_gabriel
  1 143 213      61.00000000  100000.00000000  san_gabriel
  1 144 213      58.00000000  100000.00000000  san_gabriel
  1 145 213      57.00000000  100000.00000000  san_gabriel
  1 146 213      56.00000000  100000.00000000  san_gabriel
  1 147 213      56.00000000  100000.00000000  san_gabriel
  1 148 214      55.00000000  100000.00000000  san_gabriel
  1 149 214      54.00000000  100000.00000000  san_gabriel
  1 150 214      52.00000000  100000.00000000  san_gabriel
  1 151 214      50.00000000  100000.00000000  san_gabriel
  1 152 214      48.00000000  100000.00000000  san_gabriel
  1 153 215      47.00000000  100000.00000000  san_gabriel
  1 154 215      45.00000000  100000.00000000  san_gabriel
  1 155 215      43.00000000  100000.00000000  san_gabriel
  1 156 215      41.00000000  100000.00000000  san_gabriel
  1 157 216      40.00000000  100000.00000000  san_gabriel
  1 158 216      40.00000000  100000.00000000  san_gabriel
  1 159 217      39.00000000  100000.00000000  san_gabriel
  1 160 217      39.00000000  100000.00000000  san_gabriel
  1 161 218      38.00000000  100000.00000000  san_gabriel
  1 162 218      36.00000000  100000.00000000  san_gabriel
  1 163 218      34.00000000  100000.00000000  san_gabriel
  1 164 218      32.00000000  100000.00000000  san_gabriel
  1 165 218      30.00000000  100000.00000000  san_gabriel
  1 166 218      29.00000000  100000.00000000  san_gabriel
  1 167 218      27.00000000  100000.00000000  san_gabriel
  1 168 219      26.00000000  100000.00000000  san_gabriel
  1 169 219      24.00000000  100000.00000000  san_gabriel
  1 170 219      21.00000000  100000.00000000  san_gabriel
  1 171 219      20.00000000  100000.00000000  san_gabriel
  1 172 219      19.00000000  100000.00000000  san_gabriel
  1 173 219      18.00000000  100000.00000000  san_gabriel
  1 174 219      17.00000000  100000.00000000  san_gabriel
  1 175 219      16.00000000  100000.00000000  san_gabriel
  1 176 219      15.00000000  100000.00000000  san_gabriel
  1 177 219      14.00000000  100000.00000000  san_gabriel
  1 178 219      13.00000000  100000.00000000  san_gabriel
  1 179 219      13.00000000  100000.00000000  san_gabriel
  1 180 219      12.00000000  100000.00000000  san_gabriel
  1 181 219      12.00000000  100000.00000000  san_gabriel
  1 182 219      12.00000000  100000.00000000  san_gabriel
  1 183 219      12.00000000  100000.00000000  san_gabriel
  1 153 182      37.00000000  100000.00000000  rio_hondo_canal
  2 149 85      36.00000000  100000.00000000  rio_hondo_canal
  2 154 180      35.00000000  100000.00000000  rio_hondo_canal
  2 153 179      34.00000000  100000.00000000  rio_hondo_canal
  2 153 178      33.00000000  100000.00000000  rio_hondo_canal
  2 153 177      32.00000000  100000.00000000  rio_hondo_canal
  2 154 176      31.00000000  100000.00000000  rio_hondo_canal
  2 155 175      30.00000000  100000.00000000  rio_hondo_canal
  2 156 175      29.00000000  100000.00000000  rio_hondo_canal
  2 157 175      28.00000000  100000.00000000  rio_hondo_canal
  2 158 174      27.00000000  100000.00000000  rio_hondo_canal
  1 158 173      27.00000000  100000.00000000  rio_hondo_canal
  1 158 172      27.87322501  100000.00000000  rio_hondo_canal
  2 159 171      27.00000000  100000.00000000  rio_hondo_canal
  1 159 170      27.00000000  100000.00000000  rio_hondo_canal
  1 159 169      26.00000000  100000.00000000  rio_hondo_canal
  1 160 168      26.00000000  100000.00000000  rio_hondo_canal
  2 63 221     191.00000000  100000.00000000  rio_hondo
  2 64 220     190.00000000  100000.00000000  rio_hondo
  1 65 219     189.00000000  100000.00000000  rio_hondo
  2 66 218     189.00000000  100000.00000000  rio_hondo
  1 67 217     188.00000000  100000.00000000  rio_hondo
  2 68 216     188.00000000  100000.00000000  rio_hondo
  1 69 216     187.00000000  100000.00000000  rio_hondo
  2 70 215     187.00000000  100000.00000000  rio_hondo
  2 71 215     187.00000000  100000.00000000  rio_hondo
  2 72 214     186.00000000  100000.00000000  rio_hondo
  2 73 214     186.00000000  100000.00000000  rio_hondo
  2 74 213     186.00000000  100000.00000000  rio_hondo
  2 75 212     185.00000000  100000.00000000  rio_hondo
  2 76 211     185.00000000  100000.00000000  rio_hondo
  2 77 211     181.00000000  100000.00000000  rio_hondo
  2 78 210     177.00000000  100000.00000000  rio_hondo
  2 79 210     173.00000000  100000.00000000  rio_hondo
  2 80 209     169.00000000  100000.00000000  rio_hondo
  2 81 209     165.00000000  100000.00000000  rio_hondo
  2 82 209     161.00000000  100000.00000000  rio_hondo
  1 83 209     155.00000000  100000.00000000  rio_hondo
  1 84 208     151.00000000  100000.00000000  rio_hondo
  2 85 207     147.00000000  100000.00000000  rio_hondo
  1 86 207     143.00000000  100000.00000000  rio_hondo
  2 87 206     139.00000000  100000.00000000  rio_hondo
  1 88 205     134.00000000  100000.00000000  rio_hondo
  2 88 204     130.00000000  100000.00000000  rio_hondo
  1 89 203     128.00000000  100000.00000000  rio_hondo
  1 89 202     126.00000000  100000.00000000  rio_hondo
  1 90 201     124.00000000  100000.00000000  rio_hondo
  1 90 200     122.00000000  100000.00000000  rio_hondo
  1 91 199     120.00000000  100000.00000000  rio_hondo
  1 92 198     118.00000000  100000.00000000  rio_hondo
  1 92 198     116.00000000  100000.00000000  rio_hondo
  1 93 196     115.00000000  100000.00000000  rio_hondo
  1 93 195     115.00000000  100000.00000000  rio_hondo
  1 94 194     114.00000000  100000.00000000  rio_hondo
  1 95 193     114.00000000  100000.00000000  rio_hondo
  1 95 192     113.00000000  100000.00000000  rio_hondo
  1 96 191     113.00000000  100000.00000000  rio_hondo
  1 97 190     112.00000000  100000.00000000  rio_hondo
  1 98 189     111.00000000  100000.00000000  rio_hondo
  1 99 188     109.00000000  100000.00000000  rio_hondo
  1 100 187     107.00000000  100000.00000000  rio_hondo
  1 101 187     105.00000000  100000.00000000  rio_hondo
  1 102 186     103.00000000  100000.00000000  rio_hondo
  1 103 185     101.00000000  100000.00000000  rio_hondo
  1 105 184      99.00000000  100000.00000000  rio_hondo
  1 106 183      97.00000000  100000.00000000  rio_hondo
  1 107 182      95.00000000  100000.00000000  rio_hondo
  1 108 182      92.00000000  100000.00000000  rio_hondo
  1 109 181      89.00000000  100000.00000000  rio_hondo
  1 110 181      87.00000000  100000.00000000  rio_hondo
  1 111 181      85.00000000  100000.00000000  rio_hondo
  1 112 181      83.00000000  100000.00000000  rio_hondo
  1 113 180      82.00000000  100000.00000000  rio_hondo
  1 114 180      81.00000000  100000.00000000  rio_hondo
  1 115 180      80.00000000  100000.00000000  rio_hondo
  1 116 180      79.00000000  100000.00000000  rio_hondo
  1 117 180      78.00000000  100000.00000000  rio_hondo
  1 118 180      77.00000000  100000.00000000  rio_hondo
  1 119 180      76.00000000  100000.00000000  rio_hondo
  1 120 180      75.00000000  100000.00000000  rio_hondo
  1 121 192      74.00000000  100000.00000000  rio_hondo
  1 122 179      73.00000000  100000.00000000  rio_hondo
  1 123 179      71.00000000  100000.00000000  rio_hondo
  1 124 178      69.00000000  100000.00000000  rio_hondo
  1 125 177      67.00000000  100000.00000000  rio_hondo
  1 126 176      65.00000000  100000.00000000  rio_hondo
  1 127 176      64.00000000  100000.00000000  rio_hondo
  1 128 176      63.00000000  100000.00000000  rio_hondo
  1 129 176      61.00000000  100000.00000000  rio_hondo
  1 130 175      59.00000000  100000.00000000  rio_hondo
  1 131 175      57.00000000  100000.00000000  rio_hondo
  1 133 165      55.00000000  100000.00000000  rio_hondo
  1 134 175      53.00000000  100000.00000000  rio_hondo
  1 135 175      51.00000000  100000.00000000  rio_hondo
  1 136 175      50.00000000  100000.00000000  rio_hondo
  1 137 174      48.00000000  100000.00000000  rio_hondo
  1 138 174      46.00000000  100000.00000000  rio_hondo
  1 139 174      44.00000000  100000.00000000  rio_hondo
  1 140 174      43.00000000  100000.00000000  rio_hondo
  1 141 174      42.00000000  100000.00000000  rio_hondo
  1 142 173      41.00000000  100000.00000000  rio_hondo
  1 143 173      40.00000000  100000.00000000  rio_hondo
  1 144 172      39.00000000  100000.00000000  rio_hondo
  1 145 172      38.00000000  100000.00000000  rio_hondo
  1 146 171      37.00000000  100000.00000000  rio_hondo
  1 147 171      36.00000000  100000.00000000  rio_hondo
  1 148 170      35.00000000  100000.00000000  rio_hondo
  1 149 170      34.00000000  100000.00000000  rio_hondo
  1 150 169      33.00000000  100000.00000000  rio_hondo
  1 151 169      32.00000000  100000.00000000  rio_hondo
  1 152 168      31.00000000  100000.00000000  rio_hondo
  1 153 168      30.00000000  100000.00000000  rio_hondo
  1 154 168      30.00000000  100000.00000000  rio_hondo
  1 155 168      29.00000000  100000.00000000  rio_hondo
  1 156 168      28.00000000  100000.00000000  rio_hondo
  1 157 168      28.00000000  100000.00000000  rio_hondo
  1 158 167      27.00000000  100000.00000000  rio_hondo
  1 159 167      27.00000000  100000.00000000  rio_hondo
  1 160 167      26.00000000  100000.00000000  rio_hondo
  1 161 167      25.00000000  100000.00000000  rio_hondo
  1 162 167      24.00000000  100000.00000000  rio_hondo
  2 163 167      23.00000000  100000.00000000  rio_hondo
  2 164 167      22.00000000  100000.00000000  rio_hondo
  2 165 167      22.00000000  100000.00000000  rio_hondo
  2 166 167      21.00000000  100000.00000000  rio_hondo
  1 167 166      21.00000000  100000.00000000  rio_hondo
  1 168 166      21.00000000  100000.00000000  rio_hondo
  1 169 166      21.00000000  100000.00000000  rio_hondo
  1 170 166      20.00000000  100000.00000000  rio_hondo
  1 171 166      20.00000000  100000.00000000  rio_hondo
  1 172 166      20.00000000  100000.00000000  rio_hondo
  1 173 166      20.00000000  100000.00000000  rio_hondo